225
generated from rescale_cell.py
 Pd       32.416316       35.175496       38.043934
 Pd       32.416316       37.142098       36.077335
 Pd       32.416316       37.142098       40.010535
 Pd       32.416316       39.108696       34.110734
 Pd       32.416316       39.108696       38.043934
 Pd       32.416316       39.108696       41.977134
 Pd       32.416316       41.075298       36.077335
 Pd       32.416316       41.075298       40.010535
 Pd       32.416316       43.041896       38.043934
 Pd       34.382914       33.208898       34.110734
 Pd       34.382914       33.208898       38.043934
 Pd       34.382914       33.208898       41.977134
 Pd       34.382914       35.175496       32.144135
 Pd       34.382914       35.175496       36.077335
 Pd       34.382914       35.175496       40.010535
 Pd       34.382914       35.175496       43.943735
 Pd       34.382914       37.142098       34.110734
 Pd       34.382914       37.142098       38.043934
 Pd       34.382914       37.142098       41.977134
 Pd       34.382914       39.108696       32.144135
 Pd       34.382914       39.108696       36.077335
 Pd       34.382914       39.108696       40.010535
 Pd       34.382914       39.108696       43.943735
 Pd       34.382914       41.075298       34.110734
 Pd       34.382914       41.075298       38.043934
 Pd       34.382914       41.075298       41.977134
 Pd       34.382914       43.041896       32.144135
 Pd       34.382914       43.041896       36.077335
 Pd       34.382914       43.041896       40.010535
 Pd       34.382914       43.041896       43.943735
 Pd       34.382914       45.008498       34.110734
 Pd       34.382914       45.008498       38.043934
 Pd       34.382914       45.008498       41.977134
 Pd       36.349516       31.242296       38.043934
 Pd       36.349516       33.208898       32.144135
 Pd       36.349516       33.208898       36.077335
 Pd       36.349516       33.208898       40.010535
 Pd       36.349516       33.208898       43.943735
 Pd       36.349516       35.175496       34.110734
 Pd       36.349516       35.175496       38.043934
 Pd       36.349516       35.175496       41.977134
 Pd       36.349516       37.142098       32.144135
 Pd       36.349516       37.142098       36.077335
 Pd       36.349516       37.142098       40.010535
 Pd       36.349516       37.142098       43.943735
 Pd       36.349516       39.108696       30.177535
 Pd       36.349516       39.108696       34.110734
 Pd       36.349516       39.108696       38.043934
 Pd       36.349516       39.108696       41.977134
 Pd       36.349516       39.108696       45.910334
 Pd       36.349516       41.075298       32.144135
 Pd       36.349516       41.075298       36.077335
 Pd       36.349516       41.075298       40.010535
 Pd       36.349516       41.075298       43.943735
 Pd       36.349516       43.041896       34.110734
 Pd       36.349516       43.041896       38.043934
 Pd       36.349516       43.041896       41.977134
 Pd       36.349516       45.008498       32.144135
 Pd       36.349516       45.008498       36.077335
 Pd       36.349516       45.008498       40.010535
 Pd       36.349516       45.008498       43.943735
 Pd       36.349516       46.975096       38.043934
 Pd       38.316115       31.242296       36.077335
 Pd       38.316115       31.242296       40.010535
 Pd       38.316115       33.208898       34.110734
 Pd       38.316115       33.208898       38.043934
 Pd       38.316115       33.208898       41.977134
 Pd       38.316115       35.175496       32.144135
 Pd       38.316115       35.175496       36.077335
 Pd       38.316115       35.175496       40.010535
 Pd       38.316115       35.175496       43.943735
 Pd       38.316115       37.142098       30.177535
 Pd       38.316115       37.142098       34.110734
 Pd       38.316115       37.142098       38.043934
 Pd       38.316115       37.142098       41.977134
 Pd       38.316115       37.142098       45.910334
 Pd       38.316115       39.108696       32.144135
 Pd       38.316115       39.108696       36.077335
 Pd       38.316115       39.108696       40.010535
 Pd       38.316115       39.108696       43.943735
 Pd       38.316115       41.075298       30.177535
 Pd       38.316115       41.075298       34.110734
 Pd       38.316115       41.075298       38.043934
 Pd       38.316115       41.075298       41.977134
 Pd       38.316115       41.075298       45.910334
 Pd       38.316115       43.041896       32.144135
 Pd       38.316115       43.041896       36.077335
 Pd       38.316115       43.041896       40.010535
 Pd       38.316115       43.041896       43.943735
 Pd       38.316115       45.008498       34.110734
 Pd       38.316115       45.008498       38.043934
 Pd       38.316115       45.008498       41.977134
 Pd       38.316115       46.975096       36.077335
 Pd       38.316115       46.975096       40.010535
 Pd       40.282716       31.242296       34.110734
 Pd       40.282716       31.242296       38.043934
 Pd       40.282716       31.242296       41.977134
 Pd       40.282716       33.208898       32.144135
 Pd       40.282716       33.208898       36.077335
 Pd       40.282716       33.208898       40.010535
 Pd       40.282716       33.208898       43.943735
 Pd       40.282716       35.175496       30.177535
 Pd       40.282716       35.175496       34.110734
 Pd       40.282716       35.175496       38.043934
 Pd       40.282716       35.175496       41.977134
 Pd       40.282716       35.175496       45.910334
 Pd       40.282716       37.142098       32.144135
 Pd       40.282716       37.142098       36.077335
 Pd       40.282716       37.142098       40.010535
 Pd       40.282716       37.142098       43.943735
 Pd       40.282716       39.108696       30.177535
 Pd       40.282716       39.108696       34.110734
 Pd       40.282716       39.108696       38.043934
 Pd       40.282716       39.108696       41.977134
 Pd       40.282716       39.108696       45.910334
 Pd       40.282716       41.075298       32.144135
 Pd       40.282716       41.075298       36.077335
 Pd       40.282716       41.075298       40.010535
 Pd       40.282716       41.075298       43.943735
 Pd       40.282716       43.041896       30.177535
 Pd       40.282716       43.041896       34.110734
 Pd       40.282716       43.041896       38.043934
 Pd       40.282716       43.041896       41.977134
 Pd       40.282716       43.041896       45.910334
 Pd       40.282716       45.008498       32.144135
 Pd       40.282716       45.008498       36.077335
 Pd       40.282716       45.008498       40.010535
 Pd       40.282716       45.008498       43.943735
 Pd       40.282716       46.975096       34.110734
 Pd       40.282716       46.975096       38.043934
 Pd       40.282716       46.975096       41.977134
 Pd       42.249315       31.242296       36.077335
 Pd       42.249315       31.242296       40.010535
 Pd       42.249315       33.208898       34.110734
 Pd       42.249315       33.208898       38.043934
 Pd       42.249315       33.208898       41.977134
 Pd       42.249315       35.175496       32.144135
 Pd       42.249315       35.175496       36.077335
 Pd       42.249315       35.175496       40.010535
 Pd       42.249315       35.175496       43.943735
 Pd       42.249315       37.142098       30.177535
 Pd       42.249315       37.142098       34.110734
 Pd       42.249315       37.142098       38.043934
 Pd       42.249315       37.142098       41.977134
 Pd       42.249315       37.142098       45.910334
 Pd       42.249315       39.108696       32.144135
 Pd       42.249315       39.108696       36.077335
 Pd       42.249315       39.108696       40.010535
 Pd       42.249315       39.108696       43.943735
 Pd       42.249315       41.075298       30.177535
 Pd       42.249315       41.075298       34.110734
 Pd       42.249315       41.075298       38.043934
 Pd       42.249315       41.075298       41.977134
 Pd       42.249315       41.075298       45.910334
 Pd       42.249315       43.041896       32.144135
 Pd       42.249315       43.041896       36.077335
 Pd       42.249315       43.041896       40.010535
 Pd       42.249315       43.041896       43.943735
 Pd       42.249315       45.008498       34.110734
 Pd       42.249315       45.008498       38.043934
 Pd       42.249315       45.008498       41.977134
 Pd       42.249315       46.975096       36.077335
 Pd       42.249315       46.975096       40.010535
 Pd       44.215917       31.242296       38.043934
 Pd       44.215917       33.208898       32.144135
 Pd       44.215917       33.208898       36.077335
 Pd       44.215917       33.208898       40.010535
 Pd       44.215917       33.208898       43.943735
 Pd       44.215917       35.175496       34.110734
 Pd       44.215917       35.175496       38.043934
 Pd       44.215917       35.175496       41.977134
 Pd       44.215917       37.142098       32.144135
 Pd       44.215917       37.142098       36.077335
 Pd       44.215917       37.142098       40.010535
 Pd       44.215917       37.142098       43.943735
 Pd       44.215917       39.108696       30.177535
 Pd       44.215917       39.108696       34.110734
 Pd       44.215917       39.108696       38.043934
 Pd       44.215917       39.108696       41.977134
 Pd       44.215917       39.108696       45.910334
 Pd       44.215917       41.075298       32.144135
 Pd       44.215917       41.075298       36.077335
 Pd       44.215917       41.075298       40.010535
 Pd       44.215917       41.075298       43.943735
 Pd       44.215917       43.041896       34.110734
 Pd       44.215917       43.041896       38.043934
 Pd       44.215917       43.041896       41.977134
 Pd       44.215917       45.008498       32.144135
 Pd       44.215917       45.008498       36.077335
 Pd       44.215917       45.008498       40.010535
 Pd       44.215917       45.008498       43.943735
 Pd       44.215917       46.975096       38.043934
 Pd       46.182515       33.208898       34.110734
 Pd       46.182515       33.208898       38.043934
 Pd       46.182515       33.208898       41.977134
 Pd       46.182515       35.175496       32.144135
 Pd       46.182515       35.175496       36.077335
 Pd       46.182515       35.175496       40.010535
 Pd       46.182515       35.175496       43.943735
 Pd       46.182515       37.142098       34.110734
 Pd       46.182515       37.142098       38.043934
 Pd       46.182515       37.142098       41.977134
 Pd       46.182515       39.108696       32.144135
 Pd       46.182515       39.108696       36.077335
 Pd       46.182515       39.108696       40.010535
 Pd       46.182515       39.108696       43.943735
 Pd       46.182515       41.075298       34.110734
 Pd       46.182515       41.075298       38.043934
 Pd       46.182515       41.075298       41.977134
 Pd       46.182515       43.041896       32.144135
 Pd       46.182515       43.041896       36.077335
 Pd       46.182515       43.041896       40.010535
 Pd       46.182515       43.041896       43.943735
 Pd       46.182515       45.008498       34.110734
 Pd       46.182515       45.008498       38.043934
 Pd       46.182515       45.008498       41.977134
 Pd       48.149117       35.175496       38.043934
 Pd       48.149117       37.142098       36.077335
 Pd       48.149117       37.142098       40.010535
 Pd       48.149117       39.108696       34.110734
 Pd       48.149117       39.108696       38.043934
 Pd       48.149117       39.108696       41.977134
 Pd       48.149117       41.075298       36.077335
 Pd       48.149117       41.075298       40.010535
 Pd       48.149117       43.041896       38.043934
