429
generated from rescale_cell.py
 Pd       24.816435       27.605574       38.456950
 Pd       24.816435       29.593524       36.469002
 Pd       24.816435       29.593524       40.444902
 Pd       24.816435       31.581472       34.481050
 Pd       24.816435       31.581472       38.456950
 Pd       24.816435       31.581472       42.432850
 Pd       24.816435       33.569424       32.493102
 Pd       24.816435       33.569424       36.469002
 Pd       24.816435       33.569424       40.444902
 Pd       24.816435       33.569424       44.420802
 Pd       24.816435       35.557372       34.481050
 Pd       24.816435       35.557372       38.456950
 Pd       24.816435       35.557372       42.432850
 Pd       24.816435       37.545324       36.469002
 Pd       24.816435       37.545324       40.444902
 Pd       24.816435       39.533272       38.456950
 Pd       26.804385       25.617624       38.456950
 Pd       26.804385       27.605574       32.493102
 Pd       26.804385       27.605574       36.469002
 Pd       26.804385       27.605574       40.444902
 Pd       26.804385       27.605574       44.420802
 Pd       26.804385       29.593524       34.481050
 Pd       26.804385       29.593524       38.456950
 Pd       26.804385       29.593524       42.432850
 Pd       26.804385       31.581472       32.493102
 Pd       26.804385       31.581472       36.469002
 Pd       26.804385       31.581472       40.444902
 Pd       26.804385       31.581472       44.420802
 Pd       26.804385       33.569424       30.505152
 Pd       26.804385       33.569424       34.481050
 Pd       26.804385       33.569424       38.456950
 Pd       26.804385       33.569424       42.432850
 Pd       26.804385       33.569424       46.408750
 Pd       26.804385       35.557372       32.493102
 Pd       26.804385       35.557372       36.469002
 Pd       26.804385       35.557372       40.444902
 Pd       26.804385       35.557372       44.420802
 Pd       26.804385       37.545324       34.481050
 Pd       26.804385       37.545324       38.456950
 Pd       26.804385       37.545324       42.432850
 Pd       26.804385       39.533272       32.493102
 Pd       26.804385       39.533272       36.469002
 Pd       26.804385       39.533272       40.444902
 Pd       26.804385       39.533272       44.420802
 Pd       26.804385       41.521224       38.456950
 Pd       28.792335       23.629674       38.456950
 Pd       28.792335       25.617624       32.493102
 Pd       28.792335       25.617624       36.469002
 Pd       28.792335       25.617624       40.444902
 Pd       28.792335       25.617624       44.420802
 Pd       28.792335       27.605574       30.505152
 Pd       28.792335       27.605574       34.481050
 Pd       28.792335       27.605574       38.456950
 Pd       28.792335       27.605574       42.432850
 Pd       28.792335       27.605574       46.408750
 Pd       28.792335       29.593524       32.493102
 Pd       28.792335       29.593524       36.469002
 Pd       28.792335       29.593524       40.444902
 Pd       28.792335       29.593524       44.420802
 Pd       28.792335       31.581472       30.505152
 Pd       28.792335       31.581472       34.481050
 Pd       28.792335       31.581472       38.456950
 Pd       28.792335       31.581472       42.432850
 Pd       28.792335       31.581472       46.408750
 Pd       28.792335       33.569424       28.517202
 Pd       28.792335       33.569424       32.493102
 Pd       28.792335       33.569424       36.469002
 Pd       28.792335       33.569424       40.444902
 Pd       28.792335       33.569424       44.420802
 Pd       28.792335       33.569424       48.396702
 Pd       28.792335       35.557372       30.505152
 Pd       28.792335       35.557372       34.481050
 Pd       28.792335       35.557372       38.456950
 Pd       28.792335       35.557372       42.432850
 Pd       28.792335       35.557372       46.408750
 Pd       28.792335       37.545324       32.493102
 Pd       28.792335       37.545324       36.469002
 Pd       28.792335       37.545324       40.444902
 Pd       28.792335       37.545324       44.420802
 Pd       28.792335       39.533272       30.505152
 Pd       28.792335       39.533272       34.481050
 Pd       28.792335       39.533272       38.456950
 Pd       28.792335       39.533272       42.432850
 Pd       28.792335       39.533272       46.408750
 Pd       28.792335       41.521224       32.493102
 Pd       28.792335       41.521224       36.469002
 Pd       28.792335       41.521224       40.444902
 Pd       28.792335       41.521224       44.420802
 Pd       28.792335       43.509172       38.456950
 Pd       30.780285       23.629674       36.469002
 Pd       30.780285       23.629674       40.444902
 Pd       30.780285       25.617624       34.481050
 Pd       30.780285       25.617624       38.456950
 Pd       30.780285       25.617624       42.432850
 Pd       30.780285       27.605574       32.493102
 Pd       30.780285       27.605574       36.469002
 Pd       30.780285       27.605574       40.444902
 Pd       30.780285       27.605574       44.420802
 Pd       30.780285       29.593524       30.505152
 Pd       30.780285       29.593524       34.481050
 Pd       30.780285       29.593524       38.456950
 Pd       30.780285       29.593524       42.432850
 Pd       30.780285       29.593524       46.408750
 Pd       30.780285       31.581472       28.517202
 Pd       30.780285       31.581472       32.493102
 Pd       30.780285       31.581472       36.469002
 Pd       30.780285       31.581472       40.444902
 Pd       30.780285       31.581472       44.420802
 Pd       30.780285       31.581472       48.396702
 Pd       30.780285       33.569424       30.505152
 Pd       30.780285       33.569424       34.481050
 Pd       30.780285       33.569424       38.456950
 Pd       30.780285       33.569424       42.432850
 Pd       30.780285       33.569424       46.408750
 Pd       30.780285       35.557372       28.517202
 Pd       30.780285       35.557372       32.493102
 Pd       30.780285       35.557372       36.469002
 Pd       30.780285       35.557372       40.444902
 Pd       30.780285       35.557372       44.420802
 Pd       30.780285       35.557372       48.396702
 Pd       30.780285       37.545324       30.505152
 Pd       30.780285       37.545324       34.481050
 Pd       30.780285       37.545324       38.456950
 Pd       30.780285       37.545324       42.432850
 Pd       30.780285       37.545324       46.408750
 Pd       30.780285       39.533272       32.493102
 Pd       30.780285       39.533272       36.469002
 Pd       30.780285       39.533272       40.444902
 Pd       30.780285       39.533272       44.420802
 Pd       30.780285       41.521224       34.481050
 Pd       30.780285       41.521224       38.456950
 Pd       30.780285       41.521224       42.432850
 Pd       30.780285       43.509172       36.469002
 Pd       30.780285       43.509172       40.444902
 Pd       32.768237       23.629674       34.481050
 Pd       32.768237       23.629674       38.456950
 Pd       32.768237       23.629674       42.432850
 Pd       32.768237       25.617624       32.493102
 Pd       32.768237       25.617624       36.469002
 Pd       32.768237       25.617624       40.444902
 Pd       32.768237       25.617624       44.420802
 Pd       32.768237       27.605574       30.505152
 Pd       32.768237       27.605574       34.481050
 Pd       32.768237       27.605574       38.456950
 Pd       32.768237       27.605574       42.432850
 Pd       32.768237       27.605574       46.408750
 Pd       32.768237       29.593524       28.517202
 Pd       32.768237       29.593524       32.493102
 Pd       32.768237       29.593524       36.469002
 Pd       32.768237       29.593524       40.444902
 Pd       32.768237       29.593524       44.420802
 Pd       32.768237       29.593524       48.396702
 Pd       32.768237       31.581472       30.505152
 Pd       32.768237       31.581472       34.481050
 Pd       32.768237       31.581472       38.456950
 Pd       32.768237       31.581472       42.432850
 Pd       32.768237       31.581472       46.408750
 Pd       32.768237       33.569424       28.517202
 Pd       32.768237       33.569424       32.493102
 Pd       32.768237       33.569424       36.469002
 Pd       32.768237       33.569424       40.444902
 Pd       32.768237       33.569424       44.420802
 Pd       32.768237       33.569424       48.396702
 Pd       32.768237       35.557372       30.505152
 Pd       32.768237       35.557372       34.481050
 Pd       32.768237       35.557372       38.456950
 Pd       32.768237       35.557372       42.432850
 Pd       32.768237       35.557372       46.408750
 Pd       32.768237       37.545324       28.517202
 Pd       32.768237       37.545324       32.493102
 Pd       32.768237       37.545324       36.469002
 Pd       32.768237       37.545324       40.444902
 Pd       32.768237       37.545324       44.420802
 Pd       32.768237       37.545324       48.396702
 Pd       32.768237       39.533272       30.505152
 Pd       32.768237       39.533272       34.481050
 Pd       32.768237       39.533272       38.456950
 Pd       32.768237       39.533272       42.432850
 Pd       32.768237       39.533272       46.408750
 Pd       32.768237       41.521224       32.493102
 Pd       32.768237       41.521224       36.469002
 Pd       32.768237       41.521224       40.444902
 Pd       32.768237       41.521224       44.420802
 Pd       32.768237       43.509172       34.481050
 Pd       32.768237       43.509172       38.456950
 Pd       32.768237       43.509172       42.432850
 Pd       34.756185       23.629674       32.493102
 Pd       34.756185       23.629674       36.469002
 Pd       34.756185       23.629674       40.444902
 Pd       34.756185       23.629674       44.420802
 Pd       34.756185       25.617624       30.505152
 Pd       34.756185       25.617624       34.481050
 Pd       34.756185       25.617624       38.456950
 Pd       34.756185       25.617624       42.432850
 Pd       34.756185       25.617624       46.408750
 Pd       34.756185       27.605574       28.517202
 Pd       34.756185       27.605574       32.493102
 Pd       34.756185       27.605574       36.469002
 Pd       34.756185       27.605574       40.444902
 Pd       34.756185       27.605574       44.420802
 Pd       34.756185       27.605574       48.396702
 Pd       34.756185       29.593524       30.505152
 Pd       34.756185       29.593524       34.481050
 Pd       34.756185       29.593524       38.456950
 Pd       34.756185       29.593524       42.432850
 Pd       34.756185       29.593524       46.408750
 Pd       34.756185       31.581472       28.517202
 Pd       34.756185       31.581472       32.493102
 Pd       34.756185       31.581472       36.469002
 Pd       34.756185       31.581472       40.444902
 Pd       34.756185       31.581472       44.420802
 Pd       34.756185       31.581472       48.396702
 Pd       34.756185       33.569424       30.505152
 Pd       34.756185       33.569424       34.481050
 Pd       34.756185       33.569424       38.456950
 Pd       34.756185       33.569424       42.432850
 Pd       34.756185       33.569424       46.408750
 Pd       34.756185       35.557372       28.517202
 Pd       34.756185       35.557372       32.493102
 Pd       34.756185       35.557372       36.469002
 Pd       34.756185       35.557372       40.444902
 Pd       34.756185       35.557372       44.420802
 Pd       34.756185       35.557372       48.396702
 Pd       34.756185       37.545324       30.505152
 Pd       34.756185       37.545324       34.481050
 Pd       34.756185       37.545324       38.456950
 Pd       34.756185       37.545324       42.432850
 Pd       34.756185       37.545324       46.408750
 Pd       34.756185       39.533272       28.517202
 Pd       34.756185       39.533272       32.493102
 Pd       34.756185       39.533272       36.469002
 Pd       34.756185       39.533272       40.444902
 Pd       34.756185       39.533272       44.420802
 Pd       34.756185       39.533272       48.396702
 Pd       34.756185       41.521224       30.505152
 Pd       34.756185       41.521224       34.481050
 Pd       34.756185       41.521224       38.456950
 Pd       34.756185       41.521224       42.432850
 Pd       34.756185       41.521224       46.408750
 Pd       34.756185       43.509172       32.493102
 Pd       34.756185       43.509172       36.469002
 Pd       34.756185       43.509172       40.444902
 Pd       34.756185       43.509172       44.420802
 Pd       36.744137       23.629674       34.481050
 Pd       36.744137       23.629674       38.456950
 Pd       36.744137       23.629674       42.432850
 Pd       36.744137       25.617624       32.493102
 Pd       36.744137       25.617624       36.469002
 Pd       36.744137       25.617624       40.444902
 Pd       36.744137       25.617624       44.420802
 Pd       36.744137       27.605574       30.505152
 Pd       36.744137       27.605574       34.481050
 Pd       36.744137       27.605574       38.456950
 Pd       36.744137       27.605574       42.432850
 Pd       36.744137       27.605574       46.408750
 Pd       36.744137       29.593524       28.517202
 Pd       36.744137       29.593524       32.493102
 Pd       36.744137       29.593524       36.469002
 Pd       36.744137       29.593524       40.444902
 Pd       36.744137       29.593524       44.420802
 Pd       36.744137       29.593524       48.396702
 Pd       36.744137       31.581472       30.505152
 Pd       36.744137       31.581472       34.481050
 Pd       36.744137       31.581472       38.456950
 Pd       36.744137       31.581472       42.432850
 Pd       36.744137       31.581472       46.408750
 Pd       36.744137       33.569424       28.517202
 Pd       36.744137       33.569424       32.493102
 Pd       36.744137       33.569424       36.469002
 Pd       36.744137       33.569424       40.444902
 Pd       36.744137       33.569424       44.420802
 Pd       36.744137       33.569424       48.396702
 Pd       36.744137       35.557372       30.505152
 Pd       36.744137       35.557372       34.481050
 Pd       36.744137       35.557372       38.456950
 Pd       36.744137       35.557372       42.432850
 Pd       36.744137       35.557372       46.408750
 Pd       36.744137       37.545324       28.517202
 Pd       36.744137       37.545324       32.493102
 Pd       36.744137       37.545324       36.469002
 Pd       36.744137       37.545324       40.444902
 Pd       36.744137       37.545324       44.420802
 Pd       36.744137       37.545324       48.396702
 Pd       36.744137       39.533272       30.505152
 Pd       36.744137       39.533272       34.481050
 Pd       36.744137       39.533272       38.456950
 Pd       36.744137       39.533272       42.432850
 Pd       36.744137       39.533272       46.408750
 Pd       36.744137       41.521224       32.493102
 Pd       36.744137       41.521224       36.469002
 Pd       36.744137       41.521224       40.444902
 Pd       36.744137       41.521224       44.420802
 Pd       36.744137       43.509172       34.481050
 Pd       36.744137       43.509172       38.456950
 Pd       36.744137       43.509172       42.432850
 Pd       38.732086       23.629674       36.469002
 Pd       38.732086       23.629674       40.444902
 Pd       38.732086       25.617624       34.481050
 Pd       38.732086       25.617624       38.456950
 Pd       38.732086       25.617624       42.432850
 Pd       38.732086       27.605574       32.493102
 Pd       38.732086       27.605574       36.469002
 Pd       38.732086       27.605574       40.444902
 Pd       38.732086       27.605574       44.420802
 Pd       38.732086       29.593524       30.505152
 Pd       38.732086       29.593524       34.481050
 Pd       38.732086       29.593524       38.456950
 Pd       38.732086       29.593524       42.432850
 Pd       38.732086       29.593524       46.408750
 Pd       38.732086       31.581472       28.517202
 Pd       38.732086       31.581472       32.493102
 Pd       38.732086       31.581472       36.469002
 Pd       38.732086       31.581472       40.444902
 Pd       38.732086       31.581472       44.420802
 Pd       38.732086       31.581472       48.396702
 Pd       38.732086       33.569424       30.505152
 Pd       38.732086       33.569424       34.481050
 Pd       38.732086       33.569424       38.456950
 Pd       38.732086       33.569424       42.432850
 Pd       38.732086       33.569424       46.408750
 Pd       38.732086       35.557372       28.517202
 Pd       38.732086       35.557372       32.493102
 Pd       38.732086       35.557372       36.469002
 Pd       38.732086       35.557372       40.444902
 Pd       38.732086       35.557372       44.420802
 Pd       38.732086       35.557372       48.396702
 Pd       38.732086       37.545324       30.505152
 Pd       38.732086       37.545324       34.481050
 Pd       38.732086       37.545324       38.456950
 Pd       38.732086       37.545324       42.432850
 Pd       38.732086       37.545324       46.408750
 Pd       38.732086       39.533272       32.493102
 Pd       38.732086       39.533272       36.469002
 Pd       38.732086       39.533272       40.444902
 Pd       38.732086       39.533272       44.420802
 Pd       38.732086       41.521224       34.481050
 Pd       38.732086       41.521224       38.456950
 Pd       38.732086       41.521224       42.432850
 Pd       38.732086       43.509172       36.469002
 Pd       38.732086       43.509172       40.444902
 Pd       40.720037       23.629674       38.456950
 Pd       40.720037       25.617624       32.493102
 Pd       40.720037       25.617624       36.469002
 Pd       40.720037       25.617624       40.444902
 Pd       40.720037       25.617624       44.420802
 Pd       40.720037       27.605574       30.505152
 Pd       40.720037       27.605574       34.481050
 Pd       40.720037       27.605574       38.456950
 Pd       40.720037       27.605574       42.432850
 Pd       40.720037       27.605574       46.408750
 Pd       40.720037       29.593524       32.493102
 Pd       40.720037       29.593524       36.469002
 Pd       40.720037       29.593524       40.444902
 Pd       40.720037       29.593524       44.420802
 Pd       40.720037       31.581472       30.505152
 Pd       40.720037       31.581472       34.481050
 Pd       40.720037       31.581472       38.456950
 Pd       40.720037       31.581472       42.432850
 Pd       40.720037       31.581472       46.408750
 Pd       40.720037       33.569424       28.517202
 Pd       40.720037       33.569424       32.493102
 Pd       40.720037       33.569424       36.469002
 Pd       40.720037       33.569424       40.444902
 Pd       40.720037       33.569424       44.420802
 Pd       40.720037       33.569424       48.396702
 Pd       40.720037       35.557372       30.505152
 Pd       40.720037       35.557372       34.481050
 Pd       40.720037       35.557372       38.456950
 Pd       40.720037       35.557372       42.432850
 Pd       40.720037       35.557372       46.408750
 Pd       40.720037       37.545324       32.493102
 Pd       40.720037       37.545324       36.469002
 Pd       40.720037       37.545324       40.444902
 Pd       40.720037       37.545324       44.420802
 Pd       40.720037       39.533272       30.505152
 Pd       40.720037       39.533272       34.481050
 Pd       40.720037       39.533272       38.456950
 Pd       40.720037       39.533272       42.432850
 Pd       40.720037       39.533272       46.408750
 Pd       40.720037       41.521224       32.493102
 Pd       40.720037       41.521224       36.469002
 Pd       40.720037       41.521224       40.444902
 Pd       40.720037       41.521224       44.420802
 Pd       40.720037       43.509172       38.456950
 Pd       42.707986       25.617624       38.456950
 Pd       42.707986       27.605574       32.493102
 Pd       42.707986       27.605574       36.469002
 Pd       42.707986       27.605574       40.444902
 Pd       42.707986       27.605574       44.420802
 Pd       42.707986       29.593524       34.481050
 Pd       42.707986       29.593524       38.456950
 Pd       42.707986       29.593524       42.432850
 Pd       42.707986       31.581472       32.493102
 Pd       42.707986       31.581472       36.469002
 Pd       42.707986       31.581472       40.444902
 Pd       42.707986       31.581472       44.420802
 Pd       42.707986       33.569424       30.505152
 Pd       42.707986       33.569424       34.481050
 Pd       42.707986       33.569424       38.456950
 Pd       42.707986       33.569424       42.432850
 Pd       42.707986       33.569424       46.408750
 Pd       42.707986       35.557372       32.493102
 Pd       42.707986       35.557372       36.469002
 Pd       42.707986       35.557372       40.444902
 Pd       42.707986       35.557372       44.420802
 Pd       42.707986       37.545324       34.481050
 Pd       42.707986       37.545324       38.456950
 Pd       42.707986       37.545324       42.432850
 Pd       42.707986       39.533272       32.493102
 Pd       42.707986       39.533272       36.469002
 Pd       42.707986       39.533272       40.444902
 Pd       42.707986       39.533272       44.420802
 Pd       42.707986       41.521224       38.456950
 Pd       44.695938       27.605574       38.456950
 Pd       44.695938       29.593524       36.469002
 Pd       44.695938       29.593524       40.444902
 Pd       44.695938       31.581472       34.481050
 Pd       44.695938       31.581472       38.456950
 Pd       44.695938       31.581472       42.432850
 Pd       44.695938       33.569424       32.493102
 Pd       44.695938       33.569424       36.469002
 Pd       44.695938       33.569424       40.444902
 Pd       44.695938       33.569424       44.420802
 Pd       44.695938       35.557372       34.481050
 Pd       44.695938       35.557372       38.456950
 Pd       44.695938       35.557372       42.432850
 Pd       44.695938       37.545324       36.469002
 Pd       44.695938       37.545324       40.444902
 Pd       44.695938       39.533272       38.456950
