135
generated from rescale_cell.py
 Pd       29.410778       30.229175       37.252335
 Pd       29.410778       30.229175       41.313635
 Pd       29.410778       32.259823       35.221683
 Pd       29.410778       32.259823       39.282983
 Pd       29.410778       32.259823       43.344283
 Pd       29.410778       34.290475       37.252335
 Pd       29.410778       34.290475       41.313635
 Pd       29.410778       36.321123       35.221683
 Pd       29.410778       36.321123       39.282983
 Pd       29.410778       36.321123       43.344283
 Pd       29.410778       38.351775       37.252335
 Pd       29.410778       38.351775       41.313635
 Pd       31.441428       28.198525       37.252335
 Pd       31.441428       28.198525       41.313635
 Pd       31.441428       30.229175       35.221683
 Pd       31.441428       30.229175       39.282983
 Pd       31.441428       30.229175       43.344283
 Pd       31.441428       32.259823       33.191035
 Pd       31.441428       32.259823       37.252335
 Pd       31.441428       32.259823       41.313635
 Pd       31.441428       32.259823       45.374935
 Pd       31.441428       34.290475       35.221683
 Pd       31.441428       34.290475       39.282983
 Pd       31.441428       34.290475       43.344283
 Pd       31.441428       36.321123       33.191035
 Pd       31.441428       36.321123       37.252335
 Pd       31.441428       36.321123       41.313635
 Pd       31.441428       36.321123       45.374935
 Pd       31.441428       38.351775       35.221683
 Pd       31.441428       38.351775       39.282983
 Pd       31.441428       38.351775       43.344283
 Pd       31.441428       40.382423       37.252335
 Pd       31.441428       40.382423       41.313635
 Pd       33.472080       28.198525       35.221683
 Pd       33.472080       28.198525       39.282983
 Pd       33.472080       28.198525       43.344283
 Pd       33.472080       30.229175       33.191035
 Pd       33.472080       30.229175       37.252335
 Pd       33.472080       30.229175       41.313635
 Pd       33.472080       30.229175       45.374935
 Pd       33.472080       32.259823       35.221683
 Pd       33.472080       32.259823       39.282983
 Pd       33.472080       32.259823       43.344283
 Pd       33.472080       34.290475       33.191035
 Pd       33.472080       34.290475       37.252335
 Pd       33.472080       34.290475       41.313635
 Pd       33.472080       34.290475       45.374935
 Pd       33.472080       36.321123       35.221683
 Pd       33.472080       36.321123       39.282983
 Pd       33.472080       36.321123       43.344283
 Pd       33.472080       38.351775       33.191035
 Pd       33.472080       38.351775       37.252335
 Pd       33.472080       38.351775       41.313635
 Pd       33.472080       38.351775       45.374935
 Pd       33.472080       40.382423       35.221683
 Pd       33.472080       40.382423       39.282983
 Pd       33.472080       40.382423       43.344283
 Pd       35.502728       28.198525       37.252335
 Pd       35.502728       28.198525       41.313635
 Pd       35.502728       30.229175       35.221683
 Pd       35.502728       30.229175       39.282983
 Pd       35.502728       30.229175       43.344283
 Pd       35.502728       32.259823       33.191035
 Pd       35.502728       32.259823       37.252335
 Pd       35.502728       32.259823       41.313635
 Pd       35.502728       32.259823       45.374935
 Pd       35.502728       34.290475       35.221683
 Pd       35.502728       34.290475       39.282983
 Pd       35.502728       34.290475       43.344283
 Pd       35.502728       36.321123       33.191035
 Pd       35.502728       36.321123       37.252335
 Pd       35.502728       36.321123       41.313635
 Pd       35.502728       36.321123       45.374935
 Pd       35.502728       38.351775       35.221683
 Pd       35.502728       38.351775       39.282983
 Pd       35.502728       38.351775       43.344283
 Pd       35.502728       40.382423       37.252335
 Pd       35.502728       40.382423       41.313635
 Pd       37.533380       28.198525       35.221683
 Pd       37.533380       28.198525       39.282983
 Pd       37.533380       28.198525       43.344283
 Pd       37.533380       30.229175       33.191035
 Pd       37.533380       30.229175       37.252335
 Pd       37.533380       30.229175       41.313635
 Pd       37.533380       30.229175       45.374935
 Pd       37.533380       32.259823       35.221683
 Pd       37.533380       32.259823       39.282983
 Pd       37.533380       32.259823       43.344283
 Pd       37.533380       34.290475       33.191035
 Pd       37.533380       34.290475       37.252335
 Pd       37.533380       34.290475       41.313635
 Pd       37.533380       34.290475       45.374935
 Pd       37.533380       36.321123       35.221683
 Pd       37.533380       36.321123       39.282983
 Pd       37.533380       36.321123       43.344283
 Pd       37.533380       38.351775       33.191035
 Pd       37.533380       38.351775       37.252335
 Pd       37.533380       38.351775       41.313635
 Pd       37.533380       38.351775       45.374935
 Pd       37.533380       40.382423       35.221683
 Pd       37.533380       40.382423       39.282983
 Pd       37.533380       40.382423       43.344283
 Pd       39.564029       28.198525       37.252335
 Pd       39.564029       28.198525       41.313635
 Pd       39.564029       30.229175       35.221683
 Pd       39.564029       30.229175       39.282983
 Pd       39.564029       30.229175       43.344283
 Pd       39.564029       32.259823       33.191035
 Pd       39.564029       32.259823       37.252335
 Pd       39.564029       32.259823       41.313635
 Pd       39.564029       32.259823       45.374935
 Pd       39.564029       34.290475       35.221683
 Pd       39.564029       34.290475       39.282983
 Pd       39.564029       34.290475       43.344283
 Pd       39.564029       36.321123       33.191035
 Pd       39.564029       36.321123       37.252335
 Pd       39.564029       36.321123       41.313635
 Pd       39.564029       36.321123       45.374935
 Pd       39.564029       38.351775       35.221683
 Pd       39.564029       38.351775       39.282983
 Pd       39.564029       38.351775       43.344283
 Pd       39.564029       40.382423       37.252335
 Pd       39.564029       40.382423       41.313635
 Pd       41.594680       30.229175       37.252335
 Pd       41.594680       30.229175       41.313635
 Pd       41.594680       32.259823       35.221683
 Pd       41.594680       32.259823       39.282983
 Pd       41.594680       32.259823       43.344283
 Pd       41.594680       34.290475       37.252335
 Pd       41.594680       34.290475       41.313635
 Pd       41.594680       36.321123       35.221683
 Pd       41.594680       36.321123       39.282983
 Pd       41.594680       36.321123       43.344283
 Pd       41.594680       38.351775       37.252335
 Pd       41.594680       38.351775       41.313635
