225
generated from rescale_cell.py
 Pd       32.592277       35.366434       38.250442
 Pd       32.592277       37.343711       36.273169
 Pd       32.592277       37.343711       40.227719
 Pd       32.592277       39.320984       34.295892
 Pd       32.592277       39.320984       38.250442
 Pd       32.592277       39.320984       42.204992
 Pd       32.592277       41.298261       36.273169
 Pd       32.592277       41.298261       40.227719
 Pd       32.592277       43.275534       38.250442
 Pd       34.569550       33.389161       34.295892
 Pd       34.569550       33.389161       38.250442
 Pd       34.569550       33.389161       42.204992
 Pd       34.569550       35.366434       32.318619
 Pd       34.569550       35.366434       36.273169
 Pd       34.569550       35.366434       40.227719
 Pd       34.569550       35.366434       44.182269
 Pd       34.569550       37.343711       34.295892
 Pd       34.569550       37.343711       38.250442
 Pd       34.569550       37.343711       42.204992
 Pd       34.569550       39.320984       32.318619
 Pd       34.569550       39.320984       36.273169
 Pd       34.569550       39.320984       40.227719
 Pd       34.569550       39.320984       44.182269
 Pd       34.569550       41.298261       34.295892
 Pd       34.569550       41.298261       38.250442
 Pd       34.569550       41.298261       42.204992
 Pd       34.569550       43.275534       32.318619
 Pd       34.569550       43.275534       36.273169
 Pd       34.569550       43.275534       40.227719
 Pd       34.569550       43.275534       44.182269
 Pd       34.569550       45.252811       34.295892
 Pd       34.569550       45.252811       38.250442
 Pd       34.569550       45.252811       42.204992
 Pd       36.546827       31.411884       38.250442
 Pd       36.546827       33.389161       32.318619
 Pd       36.546827       33.389161       36.273169
 Pd       36.546827       33.389161       40.227719
 Pd       36.546827       33.389161       44.182269
 Pd       36.546827       35.366434       34.295892
 Pd       36.546827       35.366434       38.250442
 Pd       36.546827       35.366434       42.204992
 Pd       36.546827       37.343711       32.318619
 Pd       36.546827       37.343711       36.273169
 Pd       36.546827       37.343711       40.227719
 Pd       36.546827       37.343711       44.182269
 Pd       36.546827       39.320984       30.341344
 Pd       36.546827       39.320984       34.295892
 Pd       36.546827       39.320984       38.250442
 Pd       36.546827       39.320984       42.204992
 Pd       36.546827       39.320984       46.159542
 Pd       36.546827       41.298261       32.318619
 Pd       36.546827       41.298261       36.273169
 Pd       36.546827       41.298261       40.227719
 Pd       36.546827       41.298261       44.182269
 Pd       36.546827       43.275534       34.295892
 Pd       36.546827       43.275534       38.250442
 Pd       36.546827       43.275534       42.204992
 Pd       36.546827       45.252811       32.318619
 Pd       36.546827       45.252811       36.273169
 Pd       36.546827       45.252811       40.227719
 Pd       36.546827       45.252811       44.182269
 Pd       36.546827       47.230084       38.250442
 Pd       38.524101       31.411884       36.273169
 Pd       38.524101       31.411884       40.227719
 Pd       38.524101       33.389161       34.295892
 Pd       38.524101       33.389161       38.250442
 Pd       38.524101       33.389161       42.204992
 Pd       38.524101       35.366434       32.318619
 Pd       38.524101       35.366434       36.273169
 Pd       38.524101       35.366434       40.227719
 Pd       38.524101       35.366434       44.182269
 Pd       38.524101       37.343711       30.341344
 Pd       38.524101       37.343711       34.295892
 Pd       38.524101       37.343711       38.250442
 Pd       38.524101       37.343711       42.204992
 Pd       38.524101       37.343711       46.159542
 Pd       38.524101       39.320984       32.318619
 Pd       38.524101       39.320984       36.273169
 Pd       38.524101       39.320984       40.227719
 Pd       38.524101       39.320984       44.182269
 Pd       38.524101       41.298261       30.341344
 Pd       38.524101       41.298261       34.295892
 Pd       38.524101       41.298261       38.250442
 Pd       38.524101       41.298261       42.204992
 Pd       38.524101       41.298261       46.159542
 Pd       38.524101       43.275534       32.318619
 Pd       38.524101       43.275534       36.273169
 Pd       38.524101       43.275534       40.227719
 Pd       38.524101       43.275534       44.182269
 Pd       38.524101       45.252811       34.295892
 Pd       38.524101       45.252811       38.250442
 Pd       38.524101       45.252811       42.204992
 Pd       38.524101       47.230084       36.273169
 Pd       38.524101       47.230084       40.227719
 Pd       40.501377       31.411884       34.295892
 Pd       40.501377       31.411884       38.250442
 Pd       40.501377       31.411884       42.204992
 Pd       40.501377       33.389161       32.318619
 Pd       40.501377       33.389161       36.273169
 Pd       40.501377       33.389161       40.227719
 Pd       40.501377       33.389161       44.182269
 Pd       40.501377       35.366434       30.341344
 Pd       40.501377       35.366434       34.295892
 Pd       40.501377       35.366434       38.250442
 Pd       40.501377       35.366434       42.204992
 Pd       40.501377       35.366434       46.159542
 Pd       40.501377       37.343711       32.318619
 Pd       40.501377       37.343711       36.273169
 Pd       40.501377       37.343711       40.227719
 Pd       40.501377       37.343711       44.182269
 Pd       40.501377       39.320984       30.341344
 Pd       40.501377       39.320984       34.295892
 Pd       40.501377       39.320984       38.250442
 Pd       40.501377       39.320984       42.204992
 Pd       40.501377       39.320984       46.159542
 Pd       40.501377       41.298261       32.318619
 Pd       40.501377       41.298261       36.273169
 Pd       40.501377       41.298261       40.227719
 Pd       40.501377       41.298261       44.182269
 Pd       40.501377       43.275534       30.341344
 Pd       40.501377       43.275534       34.295892
 Pd       40.501377       43.275534       38.250442
 Pd       40.501377       43.275534       42.204992
 Pd       40.501377       43.275534       46.159542
 Pd       40.501377       45.252811       32.318619
 Pd       40.501377       45.252811       36.273169
 Pd       40.501377       45.252811       40.227719
 Pd       40.501377       45.252811       44.182269
 Pd       40.501377       47.230084       34.295892
 Pd       40.501377       47.230084       38.250442
 Pd       40.501377       47.230084       42.204992
 Pd       42.478651       31.411884       36.273169
 Pd       42.478651       31.411884       40.227719
 Pd       42.478651       33.389161       34.295892
 Pd       42.478651       33.389161       38.250442
 Pd       42.478651       33.389161       42.204992
 Pd       42.478651       35.366434       32.318619
 Pd       42.478651       35.366434       36.273169
 Pd       42.478651       35.366434       40.227719
 Pd       42.478651       35.366434       44.182269
 Pd       42.478651       37.343711       30.341344
 Pd       42.478651       37.343711       34.295892
 Pd       42.478651       37.343711       38.250442
 Pd       42.478651       37.343711       42.204992
 Pd       42.478651       37.343711       46.159542
 Pd       42.478651       39.320984       32.318619
 Pd       42.478651       39.320984       36.273169
 Pd       42.478651       39.320984       40.227719
 Pd       42.478651       39.320984       44.182269
 Pd       42.478651       41.298261       30.341344
 Pd       42.478651       41.298261       34.295892
 Pd       42.478651       41.298261       38.250442
 Pd       42.478651       41.298261       42.204992
 Pd       42.478651       41.298261       46.159542
 Pd       42.478651       43.275534       32.318619
 Pd       42.478651       43.275534       36.273169
 Pd       42.478651       43.275534       40.227719
 Pd       42.478651       43.275534       44.182269
 Pd       42.478651       45.252811       34.295892
 Pd       42.478651       45.252811       38.250442
 Pd       42.478651       45.252811       42.204992
 Pd       42.478651       47.230084       36.273169
 Pd       42.478651       47.230084       40.227719
 Pd       44.455928       31.411884       38.250442
 Pd       44.455928       33.389161       32.318619
 Pd       44.455928       33.389161       36.273169
 Pd       44.455928       33.389161       40.227719
 Pd       44.455928       33.389161       44.182269
 Pd       44.455928       35.366434       34.295892
 Pd       44.455928       35.366434       38.250442
 Pd       44.455928       35.366434       42.204992
 Pd       44.455928       37.343711       32.318619
 Pd       44.455928       37.343711       36.273169
 Pd       44.455928       37.343711       40.227719
 Pd       44.455928       37.343711       44.182269
 Pd       44.455928       39.320984       30.341344
 Pd       44.455928       39.320984       34.295892
 Pd       44.455928       39.320984       38.250442
 Pd       44.455928       39.320984       42.204992
 Pd       44.455928       39.320984       46.159542
 Pd       44.455928       41.298261       32.318619
 Pd       44.455928       41.298261       36.273169
 Pd       44.455928       41.298261       40.227719
 Pd       44.455928       41.298261       44.182269
 Pd       44.455928       43.275534       34.295892
 Pd       44.455928       43.275534       38.250442
 Pd       44.455928       43.275534       42.204992
 Pd       44.455928       45.252811       32.318619
 Pd       44.455928       45.252811       36.273169
 Pd       44.455928       45.252811       40.227719
 Pd       44.455928       45.252811       44.182269
 Pd       44.455928       47.230084       38.250442
 Pd       46.433201       33.389161       34.295892
 Pd       46.433201       33.389161       38.250442
 Pd       46.433201       33.389161       42.204992
 Pd       46.433201       35.366434       32.318619
 Pd       46.433201       35.366434       36.273169
 Pd       46.433201       35.366434       40.227719
 Pd       46.433201       35.366434       44.182269
 Pd       46.433201       37.343711       34.295892
 Pd       46.433201       37.343711       38.250442
 Pd       46.433201       37.343711       42.204992
 Pd       46.433201       39.320984       32.318619
 Pd       46.433201       39.320984       36.273169
 Pd       46.433201       39.320984       40.227719
 Pd       46.433201       39.320984       44.182269
 Pd       46.433201       41.298261       34.295892
 Pd       46.433201       41.298261       38.250442
 Pd       46.433201       41.298261       42.204992
 Pd       46.433201       43.275534       32.318619
 Pd       46.433201       43.275534       36.273169
 Pd       46.433201       43.275534       40.227719
 Pd       46.433201       43.275534       44.182269
 Pd       46.433201       45.252811       34.295892
 Pd       46.433201       45.252811       38.250442
 Pd       46.433201       45.252811       42.204992
 Pd       48.410478       35.366434       38.250442
 Pd       48.410478       37.343711       36.273169
 Pd       48.410478       37.343711       40.227719
 Pd       48.410478       39.320984       34.295892
 Pd       48.410478       39.320984       38.250442
 Pd       48.410478       39.320984       42.204992
 Pd       48.410478       41.298261       36.273169
 Pd       48.410478       41.298261       40.227719
 Pd       48.410478       43.275534       38.250442
