321
 generated by VMD
 Pd       30.361000       38.962002       39.577999
 Pd       30.361000       40.905998       37.633999
 Pd       30.361000       40.905998       41.521000
 Pd       30.361000       42.848999       39.577999
 Pd       32.305000       35.075001       37.633999
 Pd       32.305000       35.075001       41.521000
 Pd       32.305000       37.019001       35.691002
 Pd       32.305000       37.019001       39.577999
 Pd       32.305000       37.019001       43.465000
 Pd       32.305000       38.962002       33.747002
 Pd       32.305000       38.962002       37.633999
 Pd       32.305000       38.962002       41.521000
 Pd       32.305000       38.962002       45.408001
 Pd       32.305000       40.905998       35.691002
 Pd       32.305000       40.905998       39.577999
 Pd       32.305000       40.905998       43.465000
 Pd       32.305000       42.848999       33.747002
 Pd       32.305000       42.848999       37.633999
 Pd       32.305000       42.848999       41.521000
 Pd       32.305000       42.848999       45.408001
 Pd       32.305000       44.792999       35.691002
 Pd       32.305000       44.792999       39.577999
 Pd       32.305000       44.792999       43.465000
 Pd       32.305000       46.736000       37.633999
 Pd       32.305000       46.736000       41.521000
 Pd       34.248001       33.132000       37.633999
 Pd       34.248001       33.132000       41.521000
 Pd       34.248001       35.075001       35.691002
 Pd       34.248001       35.075001       39.577999
 Pd       34.248001       35.075001       43.465000
 Pd       34.248001       37.019001       33.747002
 Pd       34.248001       37.019001       37.633999
 Pd       34.248001       37.019001       41.521000
 Pd       34.248001       37.019001       45.408001
 Pd       34.248001       38.962002       31.804001
 Pd       34.248001       38.962002       35.691002
 Pd       34.248001       38.962002       39.577999
 Pd       34.248001       38.962002       43.465000
 Pd       34.248001       38.962002       47.352001
 Pd       34.248001       40.905998       33.747002
 Pd       34.248001       40.905998       37.633999
 Pd       34.248001       40.905998       41.521000
 Pd       34.248001       40.905998       45.408001
 Pd       34.248001       42.848999       31.804001
 Pd       34.248001       42.848999       35.691002
 Pd       34.248001       42.848999       39.577999
 Pd       34.248001       42.848999       43.465000
 Pd       34.248001       42.848999       47.352001
 Pd       34.248001       44.792999       33.747002
 Pd       34.248001       44.792999       37.633999
 Pd       34.248001       44.792999       41.521000
 Pd       34.248001       44.792999       45.408001
 Pd       34.248001       46.736000       35.691002
 Pd       34.248001       46.736000       39.577999
 Pd       34.248001       46.736000       43.465000
 Pd       34.248001       48.680000       37.633999
 Pd       34.248001       48.680000       41.521000
 Pd       36.192001       33.132000       35.691002
 Pd       36.192001       33.132000       39.577999
 Pd       36.192001       33.132000       43.465000
 Pd       36.192001       35.075001       33.747002
 Pd       36.192001       35.075001       37.633999
 Pd       36.192001       35.075001       41.521000
 Pd       36.192001       35.075001       45.408001
 Pd       36.192001       37.019001       31.804001
 Pd       36.192001       37.019001       35.691002
 Pd       36.192001       37.019001       39.577999
 Pd       36.192001       37.019001       43.465000
 Pd       36.192001       37.019001       47.352001
 Pd       36.192001       38.962002       33.747002
 Pd       36.192001       38.962002       37.633999
 Pd       36.192001       38.962002       41.521000
 Pd       36.192001       38.962002       45.408001
 Pd       36.192001       40.905998       31.804001
 Pd       36.192001       40.905998       35.691002
 Pd       36.192001       40.905998       39.577999
 Pd       36.192001       40.905998       43.465000
 Pd       36.192001       40.905998       47.352001
 Pd       36.192001       42.848999       33.747002
 Pd       36.192001       42.848999       37.633999
 Pd       36.192001       42.848999       41.521000
 Pd       36.192001       42.848999       45.408001
 Pd       36.192001       44.792999       31.804001
 Pd       36.192001       44.792999       35.691002
 Pd       36.192001       44.792999       39.577999
 Pd       36.192001       44.792999       43.465000
 Pd       36.192001       44.792999       47.352001
 Pd       36.192001       46.736000       33.747002
 Pd       36.192001       46.736000       37.633999
 Pd       36.192001       46.736000       41.521000
 Pd       36.192001       46.736000       45.408001
 Pd       36.192001       48.680000       35.691002
 Pd       36.192001       48.680000       39.577999
 Pd       36.192001       48.680000       43.465000
 Pd       38.134998       31.188000       39.577999
 Pd       38.134998       33.132000       33.747002
 Pd       38.134998       33.132000       37.633999
 Pd       38.134998       33.132000       41.521000
 Pd       38.134998       33.132000       45.408001
 Pd       38.134998       35.075001       31.804001
 Pd       38.134998       35.075001       35.691002
 Pd       38.134998       35.075001       39.577999
 Pd       38.134998       35.075001       43.465000
 Pd       38.134998       35.075001       47.352001
 Pd       38.134998       37.019001       33.747002
 Pd       38.134998       37.019001       37.633999
 Pd       38.134998       37.019001       41.521000
 Pd       38.134998       37.019001       45.408001
 Pd       38.134998       38.962002       31.804001
 Pd       38.134998       38.962002       35.691002
 Pd       38.134998       38.962002       39.577999
 Pd       38.134998       38.962002       43.465000
 Pd       38.134998       38.962002       47.352001
 Pd       38.134998       40.905998       29.860001
 Pd       38.134998       40.905998       33.747002
 Pd       38.134998       40.905998       37.633999
 Pd       38.134998       40.905998       41.521000
 Pd       38.134998       40.905998       45.408001
 Pd       38.134998       40.905998       49.294998
 Pd       38.134998       42.848999       31.804001
 Pd       38.134998       42.848999       35.691002
 Pd       38.134998       42.848999       39.577999
 Pd       38.134998       42.848999       43.465000
 Pd       38.134998       42.848999       47.352001
 Pd       38.134998       44.792999       33.747002
 Pd       38.134998       44.792999       37.633999
 Pd       38.134998       44.792999       41.521000
 Pd       38.134998       44.792999       45.408001
 Pd       38.134998       46.736000       31.804001
 Pd       38.134998       46.736000       35.691002
 Pd       38.134998       46.736000       39.577999
 Pd       38.134998       46.736000       43.465000
 Pd       38.134998       46.736000       47.352001
 Pd       38.134998       48.680000       33.747002
 Pd       38.134998       48.680000       37.633999
 Pd       38.134998       48.680000       41.521000
 Pd       38.134998       48.680000       45.408001
 Pd       38.134998       50.623001       39.577999
 Pd       40.078999       31.188000       37.633999
 Pd       40.078999       31.188000       41.521000
 Pd       40.078999       33.132000       35.691002
 Pd       40.078999       33.132000       39.577999
 Pd       40.078999       33.132000       43.465000
 Pd       40.078999       35.075001       33.747002
 Pd       40.078999       35.075001       37.633999
 Pd       40.078999       35.075001       41.521000
 Pd       40.078999       35.075001       45.408001
 Pd       40.078999       37.019001       31.804001
 Pd       40.078999       37.019001       35.691002
 Pd       40.078999       37.019001       39.577999
 Pd       40.078999       37.019001       43.465000
 Pd       40.078999       37.019001       47.352001
 Pd       40.078999       38.962002       29.860001
 Pd       40.078999       38.962002       33.747002
 Pd       40.078999       38.962002       37.633999
 Pd       40.078999       38.962002       41.521000
 Pd       40.078999       38.962002       45.408001
 Pd       40.078999       38.962002       49.294998
 Pd       40.078999       40.905998       31.804001
 Pd       40.078999       40.905998       35.691002
 Pd       40.078999       40.905998       39.577999
 Pd       40.078999       40.905998       43.465000
 Pd       40.078999       40.905998       47.352001
 Pd       40.078999       42.848999       29.860001
 Pd       40.078999       42.848999       33.747002
 Pd       40.078999       42.848999       37.633999
 Pd       40.078999       42.848999       41.521000
 Pd       40.078999       42.848999       45.408001
 Pd       40.078999       42.848999       49.294998
 Pd       40.078999       44.792999       31.804001
 Pd       40.078999       44.792999       35.691002
 Pd       40.078999       44.792999       39.577999
 Pd       40.078999       44.792999       43.465000
 Pd       40.078999       44.792999       47.352001
 Pd       40.078999       46.736000       33.747002
 Pd       40.078999       46.736000       37.633999
 Pd       40.078999       46.736000       41.521000
 Pd       40.078999       46.736000       45.408001
 Pd       40.078999       48.680000       35.691002
 Pd       40.078999       48.680000       39.577999
 Pd       40.078999       48.680000       43.465000
 Pd       40.078999       50.623001       37.633999
 Pd       40.078999       50.623001       41.521000
 Pd       42.021999       31.188000       39.577999
 Pd       42.021999       33.132000       33.747002
 Pd       42.021999       33.132000       37.633999
 Pd       42.021999       33.132000       41.521000
 Pd       42.021999       33.132000       45.408001
 Pd       42.021999       35.075001       31.804001
 Pd       42.021999       35.075001       35.691002
 Pd       42.021999       35.075001       39.577999
 Pd       42.021999       35.075001       43.465000
 Pd       42.021999       35.075001       47.352001
 Pd       42.021999       37.019001       33.747002
 Pd       42.021999       37.019001       37.633999
 Pd       42.021999       37.019001       41.521000
 Pd       42.021999       37.019001       45.408001
 Pd       42.021999       38.962002       31.804001
 Pd       42.021999       38.962002       35.691002
 Pd       42.021999       38.962002       39.577999
 Pd       42.021999       38.962002       43.465000
 Pd       42.021999       38.962002       47.352001
 Pd       42.021999       40.905998       29.860001
 Pd       42.021999       40.905998       33.747002
 Pd       42.021999       40.905998       37.633999
 Pd       42.021999       40.905998       41.521000
 Pd       42.021999       40.905998       45.408001
 Pd       42.021999       40.905998       49.294998
 Pd       42.021999       42.848999       31.804001
 Pd       42.021999       42.848999       35.691002
 Pd       42.021999       42.848999       39.577999
 Pd       42.021999       42.848999       43.465000
 Pd       42.021999       42.848999       47.352001
 Pd       42.021999       44.792999       33.747002
 Pd       42.021999       44.792999       37.633999
 Pd       42.021999       44.792999       41.521000
 Pd       42.021999       44.792999       45.408001
 Pd       42.021999       46.736000       31.804001
 Pd       42.021999       46.736000       35.691002
 Pd       42.021999       46.736000       39.577999
 Pd       42.021999       46.736000       43.465000
 Pd       42.021999       46.736000       47.352001
 Pd       42.021999       48.680000       33.747002
 Pd       42.021999       48.680000       37.633999
 Pd       42.021999       48.680000       41.521000
 Pd       42.021999       48.680000       45.408001
 Pd       42.021999       50.623001       39.577999
 Pd       43.966000       33.132000       35.691002
 Pd       43.966000       33.132000       39.577999
 Pd       43.966000       33.132000       43.465000
 Pd       43.966000       35.075001       33.747002
 Pd       43.966000       35.075001       37.633999
 Pd       43.966000       35.075001       41.521000
 Pd       43.966000       35.075001       45.408001
 Pd       43.966000       37.019001       31.804001
 Pd       43.966000       37.019001       35.691002
 Pd       43.966000       37.019001       39.577999
 Pd       43.966000       37.019001       43.465000
 Pd       43.966000       37.019001       47.352001
 Pd       43.966000       38.962002       33.747002
 Pd       43.966000       38.962002       37.633999
 Pd       43.966000       38.962002       41.521000
 Pd       43.966000       38.962002       45.408001
 Pd       43.966000       40.905998       31.804001
 Pd       43.966000       40.905998       35.691002
 Pd       43.966000       40.905998       39.577999
 Pd       43.966000       40.905998       43.465000
 Pd       43.966000       40.905998       47.352001
 Pd       43.966000       42.848999       33.747002
 Pd       43.966000       42.848999       37.633999
 Pd       43.966000       42.848999       41.521000
 Pd       43.966000       42.848999       45.408001
 Pd       43.966000       44.792999       31.804001
 Pd       43.966000       44.792999       35.691002
 Pd       43.966000       44.792999       39.577999
 Pd       43.966000       44.792999       43.465000
 Pd       43.966000       44.792999       47.352001
 Pd       43.966000       46.736000       33.747002
 Pd       43.966000       46.736000       37.633999
 Pd       43.966000       46.736000       41.521000
 Pd       43.966000       46.736000       45.408001
 Pd       43.966000       48.680000       35.691002
 Pd       43.966000       48.680000       39.577999
 Pd       43.966000       48.680000       43.465000
 Pd       45.909000       33.132000       37.633999
 Pd       45.909000       33.132000       41.521000
 Pd       45.909000       35.075001       35.691002
 Pd       45.909000       35.075001       39.577999
 Pd       45.909000       35.075001       43.465000
 Pd       45.909000       37.019001       33.747002
 Pd       45.909000       37.019001       37.633999
 Pd       45.909000       37.019001       41.521000
 Pd       45.909000       37.019001       45.408001
 Pd       45.909000       38.962002       31.804001
 Pd       45.909000       38.962002       35.691002
 Pd       45.909000       38.962002       39.577999
 Pd       45.909000       38.962002       43.465000
 Pd       45.909000       38.962002       47.352001
 Pd       45.909000       40.905998       33.747002
 Pd       45.909000       40.905998       37.633999
 Pd       45.909000       40.905998       41.521000
 Pd       45.909000       40.905998       45.408001
 Pd       45.909000       42.848999       31.804001
 Pd       45.909000       42.848999       35.691002
 Pd       45.909000       42.848999       39.577999
 Pd       45.909000       42.848999       43.465000
 Pd       45.909000       42.848999       47.352001
 Pd       45.909000       44.792999       33.747002
 Pd       45.909000       44.792999       37.633999
 Pd       45.909000       44.792999       41.521000
 Pd       45.909000       44.792999       45.408001
 Pd       45.909000       46.736000       35.691002
 Pd       45.909000       46.736000       39.577999
 Pd       45.909000       46.736000       43.465000
 Pd       45.909000       48.680000       37.633999
 Pd       45.909000       48.680000       41.521000
 Pd       47.853001       35.075001       37.633999
 Pd       47.853001       35.075001       41.521000
 Pd       47.853001       37.019001       35.691002
 Pd       47.853001       37.019001       39.577999
 Pd       47.853001       37.019001       43.465000
 Pd       47.853001       38.962002       33.747002
 Pd       47.853001       38.962002       37.633999
 Pd       47.853001       38.962002       41.521000
 Pd       47.853001       38.962002       45.408001
 Pd       47.853001       40.905998       35.691002
 Pd       47.853001       40.905998       39.577999
 Pd       47.853001       40.905998       43.465000
 Pd       47.853001       42.848999       33.747002
 Pd       47.853001       42.848999       37.633999
 Pd       47.853001       42.848999       41.521000
 Pd       47.853001       42.848999       45.408001
 Pd       47.853001       44.792999       35.691002
 Pd       47.853001       44.792999       39.577999
 Pd       47.853001       44.792999       43.465000
 Pd       47.853001       46.736000       37.633999
 Pd       47.853001       46.736000       41.521000
 Pd       49.796001       38.962002       39.577999
 Pd       49.796001       40.905998       37.633999
 Pd       49.796001       40.905998       41.521000
 Pd       49.796001       42.848999       39.577999
