225
 generated by VMD
 Pd       33.824001       36.702999       39.695999
 Pd       33.824001       38.755001       37.644001
 Pd       33.824001       38.755001       41.748001
 Pd       33.824001       40.806999       35.591999
 Pd       33.824001       40.806999       39.695999
 Pd       33.824001       40.806999       43.799999
 Pd       33.824001       42.859001       37.644001
 Pd       33.824001       42.859001       41.748001
 Pd       33.824001       44.910999       39.695999
 Pd       35.875999       34.651001       35.591999
 Pd       35.875999       34.651001       39.695999
 Pd       35.875999       34.651001       43.799999
 Pd       35.875999       36.702999       33.540001
 Pd       35.875999       36.702999       37.644001
 Pd       35.875999       36.702999       41.748001
 Pd       35.875999       36.702999       45.852001
 Pd       35.875999       38.755001       35.591999
 Pd       35.875999       38.755001       39.695999
 Pd       35.875999       38.755001       43.799999
 Pd       35.875999       40.806999       33.540001
 Pd       35.875999       40.806999       37.644001
 Pd       35.875999       40.806999       41.748001
 Pd       35.875999       40.806999       45.852001
 Pd       35.875999       42.859001       35.591999
 Pd       35.875999       42.859001       39.695999
 Pd       35.875999       42.859001       43.799999
 Pd       35.875999       44.910999       33.540001
 Pd       35.875999       44.910999       37.644001
 Pd       35.875999       44.910999       41.748001
 Pd       35.875999       44.910999       45.852001
 Pd       35.875999       46.963001       35.591999
 Pd       35.875999       46.963001       39.695999
 Pd       35.875999       46.963001       43.799999
 Pd       37.928001       32.598999       39.695999
 Pd       37.928001       34.651001       33.540001
 Pd       37.928001       34.651001       37.644001
 Pd       37.928001       34.651001       41.748001
 Pd       37.928001       34.651001       45.852001
 Pd       37.928001       36.702999       35.591999
 Pd       37.928001       36.702999       39.695999
 Pd       37.928001       36.702999       43.799999
 Pd       37.928001       38.755001       33.540001
 Pd       37.928001       38.755001       37.644001
 Pd       37.928001       38.755001       41.748001
 Pd       37.928001       38.755001       45.852001
 Pd       37.928001       40.806999       31.488001
 Pd       37.928001       40.806999       35.591999
 Pd       37.928001       40.806999       39.695999
 Pd       37.928001       40.806999       43.799999
 Pd       37.928001       40.806999       47.903999
 Pd       37.928001       42.859001       33.540001
 Pd       37.928001       42.859001       37.644001
 Pd       37.928001       42.859001       41.748001
 Pd       37.928001       42.859001       45.852001
 Pd       37.928001       44.910999       35.591999
 Pd       37.928001       44.910999       39.695999
 Pd       37.928001       44.910999       43.799999
 Pd       37.928001       46.963001       33.540001
 Pd       37.928001       46.963001       37.644001
 Pd       37.928001       46.963001       41.748001
 Pd       37.928001       46.963001       45.852001
 Pd       37.928001       49.014999       39.695999
 Pd       39.980000       32.598999       37.644001
 Pd       39.980000       32.598999       41.748001
 Pd       39.980000       34.651001       35.591999
 Pd       39.980000       34.651001       39.695999
 Pd       39.980000       34.651001       43.799999
 Pd       39.980000       36.702999       33.540001
 Pd       39.980000       36.702999       37.644001
 Pd       39.980000       36.702999       41.748001
 Pd       39.980000       36.702999       45.852001
 Pd       39.980000       38.755001       31.488001
 Pd       39.980000       38.755001       35.591999
 Pd       39.980000       38.755001       39.695999
 Pd       39.980000       38.755001       43.799999
 Pd       39.980000       38.755001       47.903999
 Pd       39.980000       40.806999       33.540001
 Pd       39.980000       40.806999       37.644001
 Pd       39.980000       40.806999       41.748001
 Pd       39.980000       40.806999       45.852001
 Pd       39.980000       42.859001       31.488001
 Pd       39.980000       42.859001       35.591999
 Pd       39.980000       42.859001       39.695999
 Pd       39.980000       42.859001       43.799999
 Pd       39.980000       42.859001       47.903999
 Pd       39.980000       44.910999       33.540001
 Pd       39.980000       44.910999       37.644001
 Pd       39.980000       44.910999       41.748001
 Pd       39.980000       44.910999       45.852001
 Pd       39.980000       46.963001       35.591999
 Pd       39.980000       46.963001       39.695999
 Pd       39.980000       46.963001       43.799999
 Pd       39.980000       49.014999       37.644001
 Pd       39.980000       49.014999       41.748001
 Pd       42.032001       32.598999       35.591999
 Pd       42.032001       32.598999       39.695999
 Pd       42.032001       32.598999       43.799999
 Pd       42.032001       34.651001       33.540001
 Pd       42.032001       34.651001       37.644001
 Pd       42.032001       34.651001       41.748001
 Pd       42.032001       34.651001       45.852001
 Pd       42.032001       36.702999       31.488001
 Pd       42.032001       36.702999       35.591999
 Pd       42.032001       36.702999       39.695999
 Pd       42.032001       36.702999       43.799999
 Pd       42.032001       36.702999       47.903999
 Pd       42.032001       38.755001       33.540001
 Pd       42.032001       38.755001       37.644001
 Pd       42.032001       38.755001       41.748001
 Pd       42.032001       38.755001       45.852001
 Pd       42.032001       40.806999       31.488001
 Pd       42.032001       40.806999       35.591999
 Pd       42.032001       40.806999       39.695999
 Pd       42.032001       40.806999       43.799999
 Pd       42.032001       40.806999       47.903999
 Pd       42.032001       42.859001       33.540001
 Pd       42.032001       42.859001       37.644001
 Pd       42.032001       42.859001       41.748001
 Pd       42.032001       42.859001       45.852001
 Pd       42.032001       44.910999       31.488001
 Pd       42.032001       44.910999       35.591999
 Pd       42.032001       44.910999       39.695999
 Pd       42.032001       44.910999       43.799999
 Pd       42.032001       44.910999       47.903999
 Pd       42.032001       46.963001       33.540001
 Pd       42.032001       46.963001       37.644001
 Pd       42.032001       46.963001       41.748001
 Pd       42.032001       46.963001       45.852001
 Pd       42.032001       49.014999       35.591999
 Pd       42.032001       49.014999       39.695999
 Pd       42.032001       49.014999       43.799999
 Pd       44.084000       32.598999       37.644001
 Pd       44.084000       32.598999       41.748001
 Pd       44.084000       34.651001       35.591999
 Pd       44.084000       34.651001       39.695999
 Pd       44.084000       34.651001       43.799999
 Pd       44.084000       36.702999       33.540001
 Pd       44.084000       36.702999       37.644001
 Pd       44.084000       36.702999       41.748001
 Pd       44.084000       36.702999       45.852001
 Pd       44.084000       38.755001       31.488001
 Pd       44.084000       38.755001       35.591999
 Pd       44.084000       38.755001       39.695999
 Pd       44.084000       38.755001       43.799999
 Pd       44.084000       38.755001       47.903999
 Pd       44.084000       40.806999       33.540001
 Pd       44.084000       40.806999       37.644001
 Pd       44.084000       40.806999       41.748001
 Pd       44.084000       40.806999       45.852001
 Pd       44.084000       42.859001       31.488001
 Pd       44.084000       42.859001       35.591999
 Pd       44.084000       42.859001       39.695999
 Pd       44.084000       42.859001       43.799999
 Pd       44.084000       42.859001       47.903999
 Pd       44.084000       44.910999       33.540001
 Pd       44.084000       44.910999       37.644001
 Pd       44.084000       44.910999       41.748001
 Pd       44.084000       44.910999       45.852001
 Pd       44.084000       46.963001       35.591999
 Pd       44.084000       46.963001       39.695999
 Pd       44.084000       46.963001       43.799999
 Pd       44.084000       49.014999       37.644001
 Pd       44.084000       49.014999       41.748001
 Pd       46.136002       32.598999       39.695999
 Pd       46.136002       34.651001       33.540001
 Pd       46.136002       34.651001       37.644001
 Pd       46.136002       34.651001       41.748001
 Pd       46.136002       34.651001       45.852001
 Pd       46.136002       36.702999       35.591999
 Pd       46.136002       36.702999       39.695999
 Pd       46.136002       36.702999       43.799999
 Pd       46.136002       38.755001       33.540001
 Pd       46.136002       38.755001       37.644001
 Pd       46.136002       38.755001       41.748001
 Pd       46.136002       38.755001       45.852001
 Pd       46.136002       40.806999       31.488001
 Pd       46.136002       40.806999       35.591999
 Pd       46.136002       40.806999       39.695999
 Pd       46.136002       40.806999       43.799999
 Pd       46.136002       40.806999       47.903999
 Pd       46.136002       42.859001       33.540001
 Pd       46.136002       42.859001       37.644001
 Pd       46.136002       42.859001       41.748001
 Pd       46.136002       42.859001       45.852001
 Pd       46.136002       44.910999       35.591999
 Pd       46.136002       44.910999       39.695999
 Pd       46.136002       44.910999       43.799999
 Pd       46.136002       46.963001       33.540001
 Pd       46.136002       46.963001       37.644001
 Pd       46.136002       46.963001       41.748001
 Pd       46.136002       46.963001       45.852001
 Pd       46.136002       49.014999       39.695999
 Pd       48.188000       34.651001       35.591999
 Pd       48.188000       34.651001       39.695999
 Pd       48.188000       34.651001       43.799999
 Pd       48.188000       36.702999       33.540001
 Pd       48.188000       36.702999       37.644001
 Pd       48.188000       36.702999       41.748001
 Pd       48.188000       36.702999       45.852001
 Pd       48.188000       38.755001       35.591999
 Pd       48.188000       38.755001       39.695999
 Pd       48.188000       38.755001       43.799999
 Pd       48.188000       40.806999       33.540001
 Pd       48.188000       40.806999       37.644001
 Pd       48.188000       40.806999       41.748001
 Pd       48.188000       40.806999       45.852001
 Pd       48.188000       42.859001       35.591999
 Pd       48.188000       42.859001       39.695999
 Pd       48.188000       42.859001       43.799999
 Pd       48.188000       44.910999       33.540001
 Pd       48.188000       44.910999       37.644001
 Pd       48.188000       44.910999       41.748001
 Pd       48.188000       44.910999       45.852001
 Pd       48.188000       46.963001       35.591999
 Pd       48.188000       46.963001       39.695999
 Pd       48.188000       46.963001       43.799999
 Pd       50.240002       36.702999       39.695999
 Pd       50.240002       38.755001       37.644001
 Pd       50.240002       38.755001       41.748001
 Pd       50.240002       40.806999       35.591999
 Pd       50.240002       40.806999       39.695999
 Pd       50.240002       40.806999       43.799999
 Pd       50.240002       42.859001       37.644001
 Pd       50.240002       42.859001       41.748001
 Pd       50.240002       44.910999       39.695999
