429
generated from rescale_cell.py
 Pd       24.616544       27.383217       38.147188
 Pd       24.616544       29.355154       36.175252
 Pd       24.616544       29.355154       40.119127
 Pd       24.616544       31.327090       34.203313
 Pd       24.616544       31.327090       38.147188
 Pd       24.616544       31.327090       42.091063
 Pd       24.616544       33.299029       32.231377
 Pd       24.616544       33.299029       36.175252
 Pd       24.616544       33.299029       40.119127
 Pd       24.616544       33.299029       44.063002
 Pd       24.616544       35.270965       34.203313
 Pd       24.616544       35.270965       38.147188
 Pd       24.616544       35.270965       42.091063
 Pd       24.616544       37.242904       36.175252
 Pd       24.616544       37.242904       40.119127
 Pd       24.616544       39.214840       38.147188
 Pd       26.588482       25.411279       38.147188
 Pd       26.588482       27.383217       32.231377
 Pd       26.588482       27.383217       36.175252
 Pd       26.588482       27.383217       40.119127
 Pd       26.588482       27.383217       44.063002
 Pd       26.588482       29.355154       34.203313
 Pd       26.588482       29.355154       38.147188
 Pd       26.588482       29.355154       42.091063
 Pd       26.588482       31.327090       32.231377
 Pd       26.588482       31.327090       36.175252
 Pd       26.588482       31.327090       40.119127
 Pd       26.588482       31.327090       44.063002
 Pd       26.588482       33.299029       30.259440
 Pd       26.588482       33.299029       34.203313
 Pd       26.588482       33.299029       38.147188
 Pd       26.588482       33.299029       42.091063
 Pd       26.588482       33.299029       46.034938
 Pd       26.588482       35.270965       32.231377
 Pd       26.588482       35.270965       36.175252
 Pd       26.588482       35.270965       40.119127
 Pd       26.588482       35.270965       44.063002
 Pd       26.588482       37.242904       34.203313
 Pd       26.588482       37.242904       38.147188
 Pd       26.588482       37.242904       42.091063
 Pd       26.588482       39.214840       32.231377
 Pd       26.588482       39.214840       36.175252
 Pd       26.588482       39.214840       40.119127
 Pd       26.588482       39.214840       44.063002
 Pd       26.588482       41.186779       38.147188
 Pd       28.560419       23.439342       38.147188
 Pd       28.560419       25.411279       32.231377
 Pd       28.560419       25.411279       36.175252
 Pd       28.560419       25.411279       40.119127
 Pd       28.560419       25.411279       44.063002
 Pd       28.560419       27.383217       30.259440
 Pd       28.560419       27.383217       34.203313
 Pd       28.560419       27.383217       38.147188
 Pd       28.560419       27.383217       42.091063
 Pd       28.560419       27.383217       46.034938
 Pd       28.560419       29.355154       32.231377
 Pd       28.560419       29.355154       36.175252
 Pd       28.560419       29.355154       40.119127
 Pd       28.560419       29.355154       44.063002
 Pd       28.560419       31.327090       30.259440
 Pd       28.560419       31.327090       34.203313
 Pd       28.560419       31.327090       38.147188
 Pd       28.560419       31.327090       42.091063
 Pd       28.560419       31.327090       46.034938
 Pd       28.560419       33.299029       28.287502
 Pd       28.560419       33.299029       32.231377
 Pd       28.560419       33.299029       36.175252
 Pd       28.560419       33.299029       40.119127
 Pd       28.560419       33.299029       44.063002
 Pd       28.560419       33.299029       48.006877
 Pd       28.560419       35.270965       30.259440
 Pd       28.560419       35.270965       34.203313
 Pd       28.560419       35.270965       38.147188
 Pd       28.560419       35.270965       42.091063
 Pd       28.560419       35.270965       46.034938
 Pd       28.560419       37.242904       32.231377
 Pd       28.560419       37.242904       36.175252
 Pd       28.560419       37.242904       40.119127
 Pd       28.560419       37.242904       44.063002
 Pd       28.560419       39.214840       30.259440
 Pd       28.560419       39.214840       34.203313
 Pd       28.560419       39.214840       38.147188
 Pd       28.560419       39.214840       42.091063
 Pd       28.560419       39.214840       46.034938
 Pd       28.560419       41.186779       32.231377
 Pd       28.560419       41.186779       36.175252
 Pd       28.560419       41.186779       40.119127
 Pd       28.560419       41.186779       44.063002
 Pd       28.560419       43.158715       38.147188
 Pd       30.532357       23.439342       36.175252
 Pd       30.532357       23.439342       40.119127
 Pd       30.532357       25.411279       34.203313
 Pd       30.532357       25.411279       38.147188
 Pd       30.532357       25.411279       42.091063
 Pd       30.532357       27.383217       32.231377
 Pd       30.532357       27.383217       36.175252
 Pd       30.532357       27.383217       40.119127
 Pd       30.532357       27.383217       44.063002
 Pd       30.532357       29.355154       30.259440
 Pd       30.532357       29.355154       34.203313
 Pd       30.532357       29.355154       38.147188
 Pd       30.532357       29.355154       42.091063
 Pd       30.532357       29.355154       46.034938
 Pd       30.532357       31.327090       28.287502
 Pd       30.532357       31.327090       32.231377
 Pd       30.532357       31.327090       36.175252
 Pd       30.532357       31.327090       40.119127
 Pd       30.532357       31.327090       44.063002
 Pd       30.532357       31.327090       48.006877
 Pd       30.532357       33.299029       30.259440
 Pd       30.532357       33.299029       34.203313
 Pd       30.532357       33.299029       38.147188
 Pd       30.532357       33.299029       42.091063
 Pd       30.532357       33.299029       46.034938
 Pd       30.532357       35.270965       28.287502
 Pd       30.532357       35.270965       32.231377
 Pd       30.532357       35.270965       36.175252
 Pd       30.532357       35.270965       40.119127
 Pd       30.532357       35.270965       44.063002
 Pd       30.532357       35.270965       48.006877
 Pd       30.532357       37.242904       30.259440
 Pd       30.532357       37.242904       34.203313
 Pd       30.532357       37.242904       38.147188
 Pd       30.532357       37.242904       42.091063
 Pd       30.532357       37.242904       46.034938
 Pd       30.532357       39.214840       32.231377
 Pd       30.532357       39.214840       36.175252
 Pd       30.532357       39.214840       40.119127
 Pd       30.532357       39.214840       44.063002
 Pd       30.532357       41.186779       34.203313
 Pd       30.532357       41.186779       38.147188
 Pd       30.532357       41.186779       42.091063
 Pd       30.532357       43.158715       36.175252
 Pd       30.532357       43.158715       40.119127
 Pd       32.504296       23.439342       34.203313
 Pd       32.504296       23.439342       38.147188
 Pd       32.504296       23.439342       42.091063
 Pd       32.504296       25.411279       32.231377
 Pd       32.504296       25.411279       36.175252
 Pd       32.504296       25.411279       40.119127
 Pd       32.504296       25.411279       44.063002
 Pd       32.504296       27.383217       30.259440
 Pd       32.504296       27.383217       34.203313
 Pd       32.504296       27.383217       38.147188
 Pd       32.504296       27.383217       42.091063
 Pd       32.504296       27.383217       46.034938
 Pd       32.504296       29.355154       28.287502
 Pd       32.504296       29.355154       32.231377
 Pd       32.504296       29.355154       36.175252
 Pd       32.504296       29.355154       40.119127
 Pd       32.504296       29.355154       44.063002
 Pd       32.504296       29.355154       48.006877
 Pd       32.504296       31.327090       30.259440
 Pd       32.504296       31.327090       34.203313
 Pd       32.504296       31.327090       38.147188
 Pd       32.504296       31.327090       42.091063
 Pd       32.504296       31.327090       46.034938
 Pd       32.504296       33.299029       28.287502
 Pd       32.504296       33.299029       32.231377
 Pd       32.504296       33.299029       36.175252
 Pd       32.504296       33.299029       40.119127
 Pd       32.504296       33.299029       44.063002
 Pd       32.504296       33.299029       48.006877
 Pd       32.504296       35.270965       30.259440
 Pd       32.504296       35.270965       34.203313
 Pd       32.504296       35.270965       38.147188
 Pd       32.504296       35.270965       42.091063
 Pd       32.504296       35.270965       46.034938
 Pd       32.504296       37.242904       28.287502
 Pd       32.504296       37.242904       32.231377
 Pd       32.504296       37.242904       36.175252
 Pd       32.504296       37.242904       40.119127
 Pd       32.504296       37.242904       44.063002
 Pd       32.504296       37.242904       48.006877
 Pd       32.504296       39.214840       30.259440
 Pd       32.504296       39.214840       34.203313
 Pd       32.504296       39.214840       38.147188
 Pd       32.504296       39.214840       42.091063
 Pd       32.504296       39.214840       46.034938
 Pd       32.504296       41.186779       32.231377
 Pd       32.504296       41.186779       36.175252
 Pd       32.504296       41.186779       40.119127
 Pd       32.504296       41.186779       44.063002
 Pd       32.504296       43.158715       34.203313
 Pd       32.504296       43.158715       38.147188
 Pd       32.504296       43.158715       42.091063
 Pd       34.476232       23.439342       32.231377
 Pd       34.476232       23.439342       36.175252
 Pd       34.476232       23.439342       40.119127
 Pd       34.476232       23.439342       44.063002
 Pd       34.476232       25.411279       30.259440
 Pd       34.476232       25.411279       34.203313
 Pd       34.476232       25.411279       38.147188
 Pd       34.476232       25.411279       42.091063
 Pd       34.476232       25.411279       46.034938
 Pd       34.476232       27.383217       28.287502
 Pd       34.476232       27.383217       32.231377
 Pd       34.476232       27.383217       36.175252
 Pd       34.476232       27.383217       40.119127
 Pd       34.476232       27.383217       44.063002
 Pd       34.476232       27.383217       48.006877
 Pd       34.476232       29.355154       30.259440
 Pd       34.476232       29.355154       34.203313
 Pd       34.476232       29.355154       38.147188
 Pd       34.476232       29.355154       42.091063
 Pd       34.476232       29.355154       46.034938
 Pd       34.476232       31.327090       28.287502
 Pd       34.476232       31.327090       32.231377
 Pd       34.476232       31.327090       36.175252
 Pd       34.476232       31.327090       40.119127
 Pd       34.476232       31.327090       44.063002
 Pd       34.476232       31.327090       48.006877
 Pd       34.476232       33.299029       30.259440
 Pd       34.476232       33.299029       34.203313
 Pd       34.476232       33.299029       38.147188
 Pd       34.476232       33.299029       42.091063
 Pd       34.476232       33.299029       46.034938
 Pd       34.476232       35.270965       28.287502
 Pd       34.476232       35.270965       32.231377
 Pd       34.476232       35.270965       36.175252
 Pd       34.476232       35.270965       40.119127
 Pd       34.476232       35.270965       44.063002
 Pd       34.476232       35.270965       48.006877
 Pd       34.476232       37.242904       30.259440
 Pd       34.476232       37.242904       34.203313
 Pd       34.476232       37.242904       38.147188
 Pd       34.476232       37.242904       42.091063
 Pd       34.476232       37.242904       46.034938
 Pd       34.476232       39.214840       28.287502
 Pd       34.476232       39.214840       32.231377
 Pd       34.476232       39.214840       36.175252
 Pd       34.476232       39.214840       40.119127
 Pd       34.476232       39.214840       44.063002
 Pd       34.476232       39.214840       48.006877
 Pd       34.476232       41.186779       30.259440
 Pd       34.476232       41.186779       34.203313
 Pd       34.476232       41.186779       38.147188
 Pd       34.476232       41.186779       42.091063
 Pd       34.476232       41.186779       46.034938
 Pd       34.476232       43.158715       32.231377
 Pd       34.476232       43.158715       36.175252
 Pd       34.476232       43.158715       40.119127
 Pd       34.476232       43.158715       44.063002
 Pd       36.448171       23.439342       34.203313
 Pd       36.448171       23.439342       38.147188
 Pd       36.448171       23.439342       42.091063
 Pd       36.448171       25.411279       32.231377
 Pd       36.448171       25.411279       36.175252
 Pd       36.448171       25.411279       40.119127
 Pd       36.448171       25.411279       44.063002
 Pd       36.448171       27.383217       30.259440
 Pd       36.448171       27.383217       34.203313
 Pd       36.448171       27.383217       38.147188
 Pd       36.448171       27.383217       42.091063
 Pd       36.448171       27.383217       46.034938
 Pd       36.448171       29.355154       28.287502
 Pd       36.448171       29.355154       32.231377
 Pd       36.448171       29.355154       36.175252
 Pd       36.448171       29.355154       40.119127
 Pd       36.448171       29.355154       44.063002
 Pd       36.448171       29.355154       48.006877
 Pd       36.448171       31.327090       30.259440
 Pd       36.448171       31.327090       34.203313
 Pd       36.448171       31.327090       38.147188
 Pd       36.448171       31.327090       42.091063
 Pd       36.448171       31.327090       46.034938
 Pd       36.448171       33.299029       28.287502
 Pd       36.448171       33.299029       32.231377
 Pd       36.448171       33.299029       36.175252
 Pd       36.448171       33.299029       40.119127
 Pd       36.448171       33.299029       44.063002
 Pd       36.448171       33.299029       48.006877
 Pd       36.448171       35.270965       30.259440
 Pd       36.448171       35.270965       34.203313
 Pd       36.448171       35.270965       38.147188
 Pd       36.448171       35.270965       42.091063
 Pd       36.448171       35.270965       46.034938
 Pd       36.448171       37.242904       28.287502
 Pd       36.448171       37.242904       32.231377
 Pd       36.448171       37.242904       36.175252
 Pd       36.448171       37.242904       40.119127
 Pd       36.448171       37.242904       44.063002
 Pd       36.448171       37.242904       48.006877
 Pd       36.448171       39.214840       30.259440
 Pd       36.448171       39.214840       34.203313
 Pd       36.448171       39.214840       38.147188
 Pd       36.448171       39.214840       42.091063
 Pd       36.448171       39.214840       46.034938
 Pd       36.448171       41.186779       32.231377
 Pd       36.448171       41.186779       36.175252
 Pd       36.448171       41.186779       40.119127
 Pd       36.448171       41.186779       44.063002
 Pd       36.448171       43.158715       34.203313
 Pd       36.448171       43.158715       38.147188
 Pd       36.448171       43.158715       42.091063
 Pd       38.420108       23.439342       36.175252
 Pd       38.420108       23.439342       40.119127
 Pd       38.420108       25.411279       34.203313
 Pd       38.420108       25.411279       38.147188
 Pd       38.420108       25.411279       42.091063
 Pd       38.420108       27.383217       32.231377
 Pd       38.420108       27.383217       36.175252
 Pd       38.420108       27.383217       40.119127
 Pd       38.420108       27.383217       44.063002
 Pd       38.420108       29.355154       30.259440
 Pd       38.420108       29.355154       34.203313
 Pd       38.420108       29.355154       38.147188
 Pd       38.420108       29.355154       42.091063
 Pd       38.420108       29.355154       46.034938
 Pd       38.420108       31.327090       28.287502
 Pd       38.420108       31.327090       32.231377
 Pd       38.420108       31.327090       36.175252
 Pd       38.420108       31.327090       40.119127
 Pd       38.420108       31.327090       44.063002
 Pd       38.420108       31.327090       48.006877
 Pd       38.420108       33.299029       30.259440
 Pd       38.420108       33.299029       34.203313
 Pd       38.420108       33.299029       38.147188
 Pd       38.420108       33.299029       42.091063
 Pd       38.420108       33.299029       46.034938
 Pd       38.420108       35.270965       28.287502
 Pd       38.420108       35.270965       32.231377
 Pd       38.420108       35.270965       36.175252
 Pd       38.420108       35.270965       40.119127
 Pd       38.420108       35.270965       44.063002
 Pd       38.420108       35.270965       48.006877
 Pd       38.420108       37.242904       30.259440
 Pd       38.420108       37.242904       34.203313
 Pd       38.420108       37.242904       38.147188
 Pd       38.420108       37.242904       42.091063
 Pd       38.420108       37.242904       46.034938
 Pd       38.420108       39.214840       32.231377
 Pd       38.420108       39.214840       36.175252
 Pd       38.420108       39.214840       40.119127
 Pd       38.420108       39.214840       44.063002
 Pd       38.420108       41.186779       34.203313
 Pd       38.420108       41.186779       38.147188
 Pd       38.420108       41.186779       42.091063
 Pd       38.420108       43.158715       36.175252
 Pd       38.420108       43.158715       40.119127
 Pd       40.392046       23.439342       38.147188
 Pd       40.392046       25.411279       32.231377
 Pd       40.392046       25.411279       36.175252
 Pd       40.392046       25.411279       40.119127
 Pd       40.392046       25.411279       44.063002
 Pd       40.392046       27.383217       30.259440
 Pd       40.392046       27.383217       34.203313
 Pd       40.392046       27.383217       38.147188
 Pd       40.392046       27.383217       42.091063
 Pd       40.392046       27.383217       46.034938
 Pd       40.392046       29.355154       32.231377
 Pd       40.392046       29.355154       36.175252
 Pd       40.392046       29.355154       40.119127
 Pd       40.392046       29.355154       44.063002
 Pd       40.392046       31.327090       30.259440
 Pd       40.392046       31.327090       34.203313
 Pd       40.392046       31.327090       38.147188
 Pd       40.392046       31.327090       42.091063
 Pd       40.392046       31.327090       46.034938
 Pd       40.392046       33.299029       28.287502
 Pd       40.392046       33.299029       32.231377
 Pd       40.392046       33.299029       36.175252
 Pd       40.392046       33.299029       40.119127
 Pd       40.392046       33.299029       44.063002
 Pd       40.392046       33.299029       48.006877
 Pd       40.392046       35.270965       30.259440
 Pd       40.392046       35.270965       34.203313
 Pd       40.392046       35.270965       38.147188
 Pd       40.392046       35.270965       42.091063
 Pd       40.392046       35.270965       46.034938
 Pd       40.392046       37.242904       32.231377
 Pd       40.392046       37.242904       36.175252
 Pd       40.392046       37.242904       40.119127
 Pd       40.392046       37.242904       44.063002
 Pd       40.392046       39.214840       30.259440
 Pd       40.392046       39.214840       34.203313
 Pd       40.392046       39.214840       38.147188
 Pd       40.392046       39.214840       42.091063
 Pd       40.392046       39.214840       46.034938
 Pd       40.392046       41.186779       32.231377
 Pd       40.392046       41.186779       36.175252
 Pd       40.392046       41.186779       40.119127
 Pd       40.392046       41.186779       44.063002
 Pd       40.392046       43.158715       38.147188
 Pd       42.363983       25.411279       38.147188
 Pd       42.363983       27.383217       32.231377
 Pd       42.363983       27.383217       36.175252
 Pd       42.363983       27.383217       40.119127
 Pd       42.363983       27.383217       44.063002
 Pd       42.363983       29.355154       34.203313
 Pd       42.363983       29.355154       38.147188
 Pd       42.363983       29.355154       42.091063
 Pd       42.363983       31.327090       32.231377
 Pd       42.363983       31.327090       36.175252
 Pd       42.363983       31.327090       40.119127
 Pd       42.363983       31.327090       44.063002
 Pd       42.363983       33.299029       30.259440
 Pd       42.363983       33.299029       34.203313
 Pd       42.363983       33.299029       38.147188
 Pd       42.363983       33.299029       42.091063
 Pd       42.363983       33.299029       46.034938
 Pd       42.363983       35.270965       32.231377
 Pd       42.363983       35.270965       36.175252
 Pd       42.363983       35.270965       40.119127
 Pd       42.363983       35.270965       44.063002
 Pd       42.363983       37.242904       34.203313
 Pd       42.363983       37.242904       38.147188
 Pd       42.363983       37.242904       42.091063
 Pd       42.363983       39.214840       32.231377
 Pd       42.363983       39.214840       36.175252
 Pd       42.363983       39.214840       40.119127
 Pd       42.363983       39.214840       44.063002
 Pd       42.363983       41.186779       38.147188
 Pd       44.335922       27.383217       38.147188
 Pd       44.335922       29.355154       36.175252
 Pd       44.335922       29.355154       40.119127
 Pd       44.335922       31.327090       34.203313
 Pd       44.335922       31.327090       38.147188
 Pd       44.335922       31.327090       42.091063
 Pd       44.335922       33.299029       32.231377
 Pd       44.335922       33.299029       36.175252
 Pd       44.335922       33.299029       40.119127
 Pd       44.335922       33.299029       44.063002
 Pd       44.335922       35.270965       34.203313
 Pd       44.335922       35.270965       38.147188
 Pd       44.335922       35.270965       42.091063
 Pd       44.335922       37.242904       36.175252
 Pd       44.335922       37.242904       40.119127
 Pd       44.335922       39.214840       38.147188
