225
generated from rescale_cell.py
 Pd       32.944198       35.748310       38.663458
 Pd       32.944198       37.746937       36.664835
 Pd       32.944198       37.746937       40.662085
 Pd       32.944198       39.745560       34.666208
 Pd       32.944198       39.745560       38.663458
 Pd       32.944198       39.745560       42.660708
 Pd       32.944198       41.744187       36.664835
 Pd       32.944198       41.744187       40.662085
 Pd       32.944198       43.742810       38.663458
 Pd       34.942821       33.749687       34.666208
 Pd       34.942821       33.749687       38.663458
 Pd       34.942821       33.749687       42.660708
 Pd       34.942821       35.748310       32.667585
 Pd       34.942821       35.748310       36.664835
 Pd       34.942821       35.748310       40.662085
 Pd       34.942821       35.748310       44.659335
 Pd       34.942821       37.746937       34.666208
 Pd       34.942821       37.746937       38.663458
 Pd       34.942821       37.746937       42.660708
 Pd       34.942821       39.745560       32.667585
 Pd       34.942821       39.745560       36.664835
 Pd       34.942821       39.745560       40.662085
 Pd       34.942821       39.745560       44.659335
 Pd       34.942821       41.744187       34.666208
 Pd       34.942821       41.744187       38.663458
 Pd       34.942821       41.744187       42.660708
 Pd       34.942821       43.742810       32.667585
 Pd       34.942821       43.742810       36.664835
 Pd       34.942821       43.742810       40.662085
 Pd       34.942821       43.742810       44.659335
 Pd       34.942821       45.741437       34.666208
 Pd       34.942821       45.741437       38.663458
 Pd       34.942821       45.741437       42.660708
 Pd       36.941448       31.751060       38.663458
 Pd       36.941448       33.749687       32.667585
 Pd       36.941448       33.749687       36.664835
 Pd       36.941448       33.749687       40.662085
 Pd       36.941448       33.749687       44.659335
 Pd       36.941448       35.748310       34.666208
 Pd       36.941448       35.748310       38.663458
 Pd       36.941448       35.748310       42.660708
 Pd       36.941448       37.746937       32.667585
 Pd       36.941448       37.746937       36.664835
 Pd       36.941448       37.746937       40.662085
 Pd       36.941448       37.746937       44.659335
 Pd       36.941448       39.745560       30.668960
 Pd       36.941448       39.745560       34.666208
 Pd       36.941448       39.745560       38.663458
 Pd       36.941448       39.745560       42.660708
 Pd       36.941448       39.745560       46.657958
 Pd       36.941448       41.744187       32.667585
 Pd       36.941448       41.744187       36.664835
 Pd       36.941448       41.744187       40.662085
 Pd       36.941448       41.744187       44.659335
 Pd       36.941448       43.742810       34.666208
 Pd       36.941448       43.742810       38.663458
 Pd       36.941448       43.742810       42.660708
 Pd       36.941448       45.741437       32.667585
 Pd       36.941448       45.741437       36.664835
 Pd       36.941448       45.741437       40.662085
 Pd       36.941448       45.741437       44.659335
 Pd       36.941448       47.740060       38.663458
 Pd       38.940072       31.751060       36.664835
 Pd       38.940072       31.751060       40.662085
 Pd       38.940072       33.749687       34.666208
 Pd       38.940072       33.749687       38.663458
 Pd       38.940072       33.749687       42.660708
 Pd       38.940072       35.748310       32.667585
 Pd       38.940072       35.748310       36.664835
 Pd       38.940072       35.748310       40.662085
 Pd       38.940072       35.748310       44.659335
 Pd       38.940072       37.746937       30.668960
 Pd       38.940072       37.746937       34.666208
 Pd       38.940072       37.746937       38.663458
 Pd       38.940072       37.746937       42.660708
 Pd       38.940072       37.746937       46.657958
 Pd       38.940072       39.745560       32.667585
 Pd       38.940072       39.745560       36.664835
 Pd       38.940072       39.745560       40.662085
 Pd       38.940072       39.745560       44.659335
 Pd       38.940072       41.744187       30.668960
 Pd       38.940072       41.744187       34.666208
 Pd       38.940072       41.744187       38.663458
 Pd       38.940072       41.744187       42.660708
 Pd       38.940072       41.744187       46.657958
 Pd       38.940072       43.742810       32.667585
 Pd       38.940072       43.742810       36.664835
 Pd       38.940072       43.742810       40.662085
 Pd       38.940072       43.742810       44.659335
 Pd       38.940072       45.741437       34.666208
 Pd       38.940072       45.741437       38.663458
 Pd       38.940072       45.741437       42.660708
 Pd       38.940072       47.740060       36.664835
 Pd       38.940072       47.740060       40.662085
 Pd       40.938698       31.751060       34.666208
 Pd       40.938698       31.751060       38.663458
 Pd       40.938698       31.751060       42.660708
 Pd       40.938698       33.749687       32.667585
 Pd       40.938698       33.749687       36.664835
 Pd       40.938698       33.749687       40.662085
 Pd       40.938698       33.749687       44.659335
 Pd       40.938698       35.748310       30.668960
 Pd       40.938698       35.748310       34.666208
 Pd       40.938698       35.748310       38.663458
 Pd       40.938698       35.748310       42.660708
 Pd       40.938698       35.748310       46.657958
 Pd       40.938698       37.746937       32.667585
 Pd       40.938698       37.746937       36.664835
 Pd       40.938698       37.746937       40.662085
 Pd       40.938698       37.746937       44.659335
 Pd       40.938698       39.745560       30.668960
 Pd       40.938698       39.745560       34.666208
 Pd       40.938698       39.745560       38.663458
 Pd       40.938698       39.745560       42.660708
 Pd       40.938698       39.745560       46.657958
 Pd       40.938698       41.744187       32.667585
 Pd       40.938698       41.744187       36.664835
 Pd       40.938698       41.744187       40.662085
 Pd       40.938698       41.744187       44.659335
 Pd       40.938698       43.742810       30.668960
 Pd       40.938698       43.742810       34.666208
 Pd       40.938698       43.742810       38.663458
 Pd       40.938698       43.742810       42.660708
 Pd       40.938698       43.742810       46.657958
 Pd       40.938698       45.741437       32.667585
 Pd       40.938698       45.741437       36.664835
 Pd       40.938698       45.741437       40.662085
 Pd       40.938698       45.741437       44.659335
 Pd       40.938698       47.740060       34.666208
 Pd       40.938698       47.740060       38.663458
 Pd       40.938698       47.740060       42.660708
 Pd       42.937322       31.751060       36.664835
 Pd       42.937322       31.751060       40.662085
 Pd       42.937322       33.749687       34.666208
 Pd       42.937322       33.749687       38.663458
 Pd       42.937322       33.749687       42.660708
 Pd       42.937322       35.748310       32.667585
 Pd       42.937322       35.748310       36.664835
 Pd       42.937322       35.748310       40.662085
 Pd       42.937322       35.748310       44.659335
 Pd       42.937322       37.746937       30.668960
 Pd       42.937322       37.746937       34.666208
 Pd       42.937322       37.746937       38.663458
 Pd       42.937322       37.746937       42.660708
 Pd       42.937322       37.746937       46.657958
 Pd       42.937322       39.745560       32.667585
 Pd       42.937322       39.745560       36.664835
 Pd       42.937322       39.745560       40.662085
 Pd       42.937322       39.745560       44.659335
 Pd       42.937322       41.744187       30.668960
 Pd       42.937322       41.744187       34.666208
 Pd       42.937322       41.744187       38.663458
 Pd       42.937322       41.744187       42.660708
 Pd       42.937322       41.744187       46.657958
 Pd       42.937322       43.742810       32.667585
 Pd       42.937322       43.742810       36.664835
 Pd       42.937322       43.742810       40.662085
 Pd       42.937322       43.742810       44.659335
 Pd       42.937322       45.741437       34.666208
 Pd       42.937322       45.741437       38.663458
 Pd       42.937322       45.741437       42.660708
 Pd       42.937322       47.740060       36.664835
 Pd       42.937322       47.740060       40.662085
 Pd       44.935949       31.751060       38.663458
 Pd       44.935949       33.749687       32.667585
 Pd       44.935949       33.749687       36.664835
 Pd       44.935949       33.749687       40.662085
 Pd       44.935949       33.749687       44.659335
 Pd       44.935949       35.748310       34.666208
 Pd       44.935949       35.748310       38.663458
 Pd       44.935949       35.748310       42.660708
 Pd       44.935949       37.746937       32.667585
 Pd       44.935949       37.746937       36.664835
 Pd       44.935949       37.746937       40.662085
 Pd       44.935949       37.746937       44.659335
 Pd       44.935949       39.745560       30.668960
 Pd       44.935949       39.745560       34.666208
 Pd       44.935949       39.745560       38.663458
 Pd       44.935949       39.745560       42.660708
 Pd       44.935949       39.745560       46.657958
 Pd       44.935949       41.744187       32.667585
 Pd       44.935949       41.744187       36.664835
 Pd       44.935949       41.744187       40.662085
 Pd       44.935949       41.744187       44.659335
 Pd       44.935949       43.742810       34.666208
 Pd       44.935949       43.742810       38.663458
 Pd       44.935949       43.742810       42.660708
 Pd       44.935949       45.741437       32.667585
 Pd       44.935949       45.741437       36.664835
 Pd       44.935949       45.741437       40.662085
 Pd       44.935949       45.741437       44.659335
 Pd       44.935949       47.740060       38.663458
 Pd       46.934572       33.749687       34.666208
 Pd       46.934572       33.749687       38.663458
 Pd       46.934572       33.749687       42.660708
 Pd       46.934572       35.748310       32.667585
 Pd       46.934572       35.748310       36.664835
 Pd       46.934572       35.748310       40.662085
 Pd       46.934572       35.748310       44.659335
 Pd       46.934572       37.746937       34.666208
 Pd       46.934572       37.746937       38.663458
 Pd       46.934572       37.746937       42.660708
 Pd       46.934572       39.745560       32.667585
 Pd       46.934572       39.745560       36.664835
 Pd       46.934572       39.745560       40.662085
 Pd       46.934572       39.745560       44.659335
 Pd       46.934572       41.744187       34.666208
 Pd       46.934572       41.744187       38.663458
 Pd       46.934572       41.744187       42.660708
 Pd       46.934572       43.742810       32.667585
 Pd       46.934572       43.742810       36.664835
 Pd       46.934572       43.742810       40.662085
 Pd       46.934572       43.742810       44.659335
 Pd       46.934572       45.741437       34.666208
 Pd       46.934572       45.741437       38.663458
 Pd       46.934572       45.741437       42.660708
 Pd       48.933199       35.748310       38.663458
 Pd       48.933199       37.746937       36.664835
 Pd       48.933199       37.746937       40.662085
 Pd       48.933199       39.745560       34.666208
 Pd       48.933199       39.745560       38.663458
 Pd       48.933199       39.745560       42.660708
 Pd       48.933199       41.744187       36.664835
 Pd       48.933199       41.744187       40.662085
 Pd       48.933199       43.742810       38.663458
