135
generated from rescale_cell.py
 Pd       28.560419       29.355154       36.175252
 Pd       28.560419       29.355154       40.119127
 Pd       28.560419       31.327090       34.203313
 Pd       28.560419       31.327090       38.147188
 Pd       28.560419       31.327090       42.091063
 Pd       28.560419       33.299029       36.175252
 Pd       28.560419       33.299029       40.119127
 Pd       28.560419       35.270965       34.203313
 Pd       28.560419       35.270965       38.147188
 Pd       28.560419       35.270965       42.091063
 Pd       28.560419       37.242904       36.175252
 Pd       28.560419       37.242904       40.119127
 Pd       30.532357       27.383217       36.175252
 Pd       30.532357       27.383217       40.119127
 Pd       30.532357       29.355154       34.203313
 Pd       30.532357       29.355154       38.147188
 Pd       30.532357       29.355154       42.091063
 Pd       30.532357       31.327090       32.231377
 Pd       30.532357       31.327090       36.175252
 Pd       30.532357       31.327090       40.119127
 Pd       30.532357       31.327090       44.063002
 Pd       30.532357       33.299029       34.203313
 Pd       30.532357       33.299029       38.147188
 Pd       30.532357       33.299029       42.091063
 Pd       30.532357       35.270965       32.231377
 Pd       30.532357       35.270965       36.175252
 Pd       30.532357       35.270965       40.119127
 Pd       30.532357       35.270965       44.063002
 Pd       30.532357       37.242904       34.203313
 Pd       30.532357       37.242904       38.147188
 Pd       30.532357       37.242904       42.091063
 Pd       30.532357       39.214840       36.175252
 Pd       30.532357       39.214840       40.119127
 Pd       32.504296       27.383217       34.203313
 Pd       32.504296       27.383217       38.147188
 Pd       32.504296       27.383217       42.091063
 Pd       32.504296       29.355154       32.231377
 Pd       32.504296       29.355154       36.175252
 Pd       32.504296       29.355154       40.119127
 Pd       32.504296       29.355154       44.063002
 Pd       32.504296       31.327090       34.203313
 Pd       32.504296       31.327090       38.147188
 Pd       32.504296       31.327090       42.091063
 Pd       32.504296       33.299029       32.231377
 Pd       32.504296       33.299029       36.175252
 Pd       32.504296       33.299029       40.119127
 Pd       32.504296       33.299029       44.063002
 Pd       32.504296       35.270965       34.203313
 Pd       32.504296       35.270965       38.147188
 Pd       32.504296       35.270965       42.091063
 Pd       32.504296       37.242904       32.231377
 Pd       32.504296       37.242904       36.175252
 Pd       32.504296       37.242904       40.119127
 Pd       32.504296       37.242904       44.063002
 Pd       32.504296       39.214840       34.203313
 Pd       32.504296       39.214840       38.147188
 Pd       32.504296       39.214840       42.091063
 Pd       34.476232       27.383217       36.175252
 Pd       34.476232       27.383217       40.119127
 Pd       34.476232       29.355154       34.203313
 Pd       34.476232       29.355154       38.147188
 Pd       34.476232       29.355154       42.091063
 Pd       34.476232       31.327090       32.231377
 Pd       34.476232       31.327090       36.175252
 Pd       34.476232       31.327090       40.119127
 Pd       34.476232       31.327090       44.063002
 Pd       34.476232       33.299029       34.203313
 Pd       34.476232       33.299029       38.147188
 Pd       34.476232       33.299029       42.091063
 Pd       34.476232       35.270965       32.231377
 Pd       34.476232       35.270965       36.175252
 Pd       34.476232       35.270965       40.119127
 Pd       34.476232       35.270965       44.063002
 Pd       34.476232       37.242904       34.203313
 Pd       34.476232       37.242904       38.147188
 Pd       34.476232       37.242904       42.091063
 Pd       34.476232       39.214840       36.175252
 Pd       34.476232       39.214840       40.119127
 Pd       36.448171       27.383217       34.203313
 Pd       36.448171       27.383217       38.147188
 Pd       36.448171       27.383217       42.091063
 Pd       36.448171       29.355154       32.231377
 Pd       36.448171       29.355154       36.175252
 Pd       36.448171       29.355154       40.119127
 Pd       36.448171       29.355154       44.063002
 Pd       36.448171       31.327090       34.203313
 Pd       36.448171       31.327090       38.147188
 Pd       36.448171       31.327090       42.091063
 Pd       36.448171       33.299029       32.231377
 Pd       36.448171       33.299029       36.175252
 Pd       36.448171       33.299029       40.119127
 Pd       36.448171       33.299029       44.063002
 Pd       36.448171       35.270965       34.203313
 Pd       36.448171       35.270965       38.147188
 Pd       36.448171       35.270965       42.091063
 Pd       36.448171       37.242904       32.231377
 Pd       36.448171       37.242904       36.175252
 Pd       36.448171       37.242904       40.119127
 Pd       36.448171       37.242904       44.063002
 Pd       36.448171       39.214840       34.203313
 Pd       36.448171       39.214840       38.147188
 Pd       36.448171       39.214840       42.091063
 Pd       38.420108       27.383217       36.175252
 Pd       38.420108       27.383217       40.119127
 Pd       38.420108       29.355154       34.203313
 Pd       38.420108       29.355154       38.147188
 Pd       38.420108       29.355154       42.091063
 Pd       38.420108       31.327090       32.231377
 Pd       38.420108       31.327090       36.175252
 Pd       38.420108       31.327090       40.119127
 Pd       38.420108       31.327090       44.063002
 Pd       38.420108       33.299029       34.203313
 Pd       38.420108       33.299029       38.147188
 Pd       38.420108       33.299029       42.091063
 Pd       38.420108       35.270965       32.231377
 Pd       38.420108       35.270965       36.175252
 Pd       38.420108       35.270965       40.119127
 Pd       38.420108       35.270965       44.063002
 Pd       38.420108       37.242904       34.203313
 Pd       38.420108       37.242904       38.147188
 Pd       38.420108       37.242904       42.091063
 Pd       38.420108       39.214840       36.175252
 Pd       38.420108       39.214840       40.119127
 Pd       40.392046       29.355154       36.175252
 Pd       40.392046       29.355154       40.119127
 Pd       40.392046       31.327090       34.203313
 Pd       40.392046       31.327090       38.147188
 Pd       40.392046       31.327090       42.091063
 Pd       40.392046       33.299029       36.175252
 Pd       40.392046       33.299029       40.119127
 Pd       40.392046       35.270965       34.203313
 Pd       40.392046       35.270965       38.147188
 Pd       40.392046       35.270965       42.091063
 Pd       40.392046       37.242904       36.175252
 Pd       40.392046       37.242904       40.119127
