135
generated from rescale_cell.py
 Pd       29.333472       30.149719       37.154418
 Pd       29.333472       30.149719       41.205043
 Pd       29.333472       32.175029       35.129104
 Pd       29.333472       32.175029       39.179729
 Pd       29.333472       32.175029       43.230354
 Pd       29.333472       34.200344       37.154418
 Pd       29.333472       34.200344       41.205043
 Pd       29.333472       36.225654       35.129104
 Pd       29.333472       36.225654       39.179729
 Pd       29.333472       36.225654       43.230354
 Pd       29.333472       38.250969       37.154418
 Pd       29.333472       38.250969       41.205043
 Pd       31.358785       28.124406       37.154418
 Pd       31.358785       28.124406       41.205043
 Pd       31.358785       30.149719       35.129104
 Pd       31.358785       30.149719       39.179729
 Pd       31.358785       30.149719       43.230354
 Pd       31.358785       32.175029       33.103793
 Pd       31.358785       32.175029       37.154418
 Pd       31.358785       32.175029       41.205043
 Pd       31.358785       32.175029       45.255668
 Pd       31.358785       34.200344       35.129104
 Pd       31.358785       34.200344       39.179729
 Pd       31.358785       34.200344       43.230354
 Pd       31.358785       36.225654       33.103793
 Pd       31.358785       36.225654       37.154418
 Pd       31.358785       36.225654       41.205043
 Pd       31.358785       36.225654       45.255668
 Pd       31.358785       38.250969       35.129104
 Pd       31.358785       38.250969       39.179729
 Pd       31.358785       38.250969       43.230354
 Pd       31.358785       40.276279       37.154418
 Pd       31.358785       40.276279       41.205043
 Pd       33.384099       28.124406       35.129104
 Pd       33.384099       28.124406       39.179729
 Pd       33.384099       28.124406       43.230354
 Pd       33.384099       30.149719       33.103793
 Pd       33.384099       30.149719       37.154418
 Pd       33.384099       30.149719       41.205043
 Pd       33.384099       30.149719       45.255668
 Pd       33.384099       32.175029       35.129104
 Pd       33.384099       32.175029       39.179729
 Pd       33.384099       32.175029       43.230354
 Pd       33.384099       34.200344       33.103793
 Pd       33.384099       34.200344       37.154418
 Pd       33.384099       34.200344       41.205043
 Pd       33.384099       34.200344       45.255668
 Pd       33.384099       36.225654       35.129104
 Pd       33.384099       36.225654       39.179729
 Pd       33.384099       36.225654       43.230354
 Pd       33.384099       38.250969       33.103793
 Pd       33.384099       38.250969       37.154418
 Pd       33.384099       38.250969       41.205043
 Pd       33.384099       38.250969       45.255668
 Pd       33.384099       40.276279       35.129104
 Pd       33.384099       40.276279       39.179729
 Pd       33.384099       40.276279       43.230354
 Pd       35.409410       28.124406       37.154418
 Pd       35.409410       28.124406       41.205043
 Pd       35.409410       30.149719       35.129104
 Pd       35.409410       30.149719       39.179729
 Pd       35.409410       30.149719       43.230354
 Pd       35.409410       32.175029       33.103793
 Pd       35.409410       32.175029       37.154418
 Pd       35.409410       32.175029       41.205043
 Pd       35.409410       32.175029       45.255668
 Pd       35.409410       34.200344       35.129104
 Pd       35.409410       34.200344       39.179729
 Pd       35.409410       34.200344       43.230354
 Pd       35.409410       36.225654       33.103793
 Pd       35.409410       36.225654       37.154418
 Pd       35.409410       36.225654       41.205043
 Pd       35.409410       36.225654       45.255668
 Pd       35.409410       38.250969       35.129104
 Pd       35.409410       38.250969       39.179729
 Pd       35.409410       38.250969       43.230354
 Pd       35.409410       40.276279       37.154418
 Pd       35.409410       40.276279       41.205043
 Pd       37.434724       28.124406       35.129104
 Pd       37.434724       28.124406       39.179729
 Pd       37.434724       28.124406       43.230354
 Pd       37.434724       30.149719       33.103793
 Pd       37.434724       30.149719       37.154418
 Pd       37.434724       30.149719       41.205043
 Pd       37.434724       30.149719       45.255668
 Pd       37.434724       32.175029       35.129104
 Pd       37.434724       32.175029       39.179729
 Pd       37.434724       32.175029       43.230354
 Pd       37.434724       34.200344       33.103793
 Pd       37.434724       34.200344       37.154418
 Pd       37.434724       34.200344       41.205043
 Pd       37.434724       34.200344       45.255668
 Pd       37.434724       36.225654       35.129104
 Pd       37.434724       36.225654       39.179729
 Pd       37.434724       36.225654       43.230354
 Pd       37.434724       38.250969       33.103793
 Pd       37.434724       38.250969       37.154418
 Pd       37.434724       38.250969       41.205043
 Pd       37.434724       38.250969       45.255668
 Pd       37.434724       40.276279       35.129104
 Pd       37.434724       40.276279       39.179729
 Pd       37.434724       40.276279       43.230354
 Pd       39.460036       28.124406       37.154418
 Pd       39.460036       28.124406       41.205043
 Pd       39.460036       30.149719       35.129104
 Pd       39.460036       30.149719       39.179729
 Pd       39.460036       30.149719       43.230354
 Pd       39.460036       32.175029       33.103793
 Pd       39.460036       32.175029       37.154418
 Pd       39.460036       32.175029       41.205043
 Pd       39.460036       32.175029       45.255668
 Pd       39.460036       34.200344       35.129104
 Pd       39.460036       34.200344       39.179729
 Pd       39.460036       34.200344       43.230354
 Pd       39.460036       36.225654       33.103793
 Pd       39.460036       36.225654       37.154418
 Pd       39.460036       36.225654       41.205043
 Pd       39.460036       36.225654       45.255668
 Pd       39.460036       38.250969       35.129104
 Pd       39.460036       38.250969       39.179729
 Pd       39.460036       38.250969       43.230354
 Pd       39.460036       40.276279       37.154418
 Pd       39.460036       40.276279       41.205043
 Pd       41.485349       30.149719       37.154418
 Pd       41.485349       30.149719       41.205043
 Pd       41.485349       32.175029       35.129104
 Pd       41.485349       32.175029       39.179729
 Pd       41.485349       32.175029       43.230354
 Pd       41.485349       34.200344       37.154418
 Pd       41.485349       34.200344       41.205043
 Pd       41.485349       36.225654       35.129104
 Pd       41.485349       36.225654       39.179729
 Pd       41.485349       36.225654       43.230354
 Pd       41.485349       38.250969       37.154418
 Pd       41.485349       38.250969       41.205043
