135
 generated by VMD
 Pd       29.719999       30.547001       37.644001
 Pd       29.719999       30.547001       41.748001
 Pd       29.719999       32.598999       35.591999
 Pd       29.719999       32.598999       39.695999
 Pd       29.719999       32.598999       43.799999
 Pd       29.719999       34.651001       37.644001
 Pd       29.719999       34.651001       41.748001
 Pd       29.719999       36.702999       35.591999
 Pd       29.719999       36.702999       39.695999
 Pd       29.719999       36.702999       43.799999
 Pd       29.719999       38.755001       37.644001
 Pd       29.719999       38.755001       41.748001
 Pd       31.771999       28.495001       37.644001
 Pd       31.771999       28.495001       41.748001
 Pd       31.771999       30.547001       35.591999
 Pd       31.771999       30.547001       39.695999
 Pd       31.771999       30.547001       43.799999
 Pd       31.771999       32.598999       33.540001
 Pd       31.771999       32.598999       37.644001
 Pd       31.771999       32.598999       41.748001
 Pd       31.771999       32.598999       45.852001
 Pd       31.771999       34.651001       35.591999
 Pd       31.771999       34.651001       39.695999
 Pd       31.771999       34.651001       43.799999
 Pd       31.771999       36.702999       33.540001
 Pd       31.771999       36.702999       37.644001
 Pd       31.771999       36.702999       41.748001
 Pd       31.771999       36.702999       45.852001
 Pd       31.771999       38.755001       35.591999
 Pd       31.771999       38.755001       39.695999
 Pd       31.771999       38.755001       43.799999
 Pd       31.771999       40.806999       37.644001
 Pd       31.771999       40.806999       41.748001
 Pd       33.824001       28.495001       35.591999
 Pd       33.824001       28.495001       39.695999
 Pd       33.824001       28.495001       43.799999
 Pd       33.824001       30.547001       33.540001
 Pd       33.824001       30.547001       37.644001
 Pd       33.824001       30.547001       41.748001
 Pd       33.824001       30.547001       45.852001
 Pd       33.824001       32.598999       35.591999
 Pd       33.824001       32.598999       39.695999
 Pd       33.824001       32.598999       43.799999
 Pd       33.824001       34.651001       33.540001
 Pd       33.824001       34.651001       37.644001
 Pd       33.824001       34.651001       41.748001
 Pd       33.824001       34.651001       45.852001
 Pd       33.824001       36.702999       35.591999
 Pd       33.824001       36.702999       39.695999
 Pd       33.824001       36.702999       43.799999
 Pd       33.824001       38.755001       33.540001
 Pd       33.824001       38.755001       37.644001
 Pd       33.824001       38.755001       41.748001
 Pd       33.824001       38.755001       45.852001
 Pd       33.824001       40.806999       35.591999
 Pd       33.824001       40.806999       39.695999
 Pd       33.824001       40.806999       43.799999
 Pd       35.875999       28.495001       37.644001
 Pd       35.875999       28.495001       41.748001
 Pd       35.875999       30.547001       35.591999
 Pd       35.875999       30.547001       39.695999
 Pd       35.875999       30.547001       43.799999
 Pd       35.875999       32.598999       33.540001
 Pd       35.875999       32.598999       37.644001
 Pd       35.875999       32.598999       41.748001
 Pd       35.875999       32.598999       45.852001
 Pd       35.875999       34.651001       35.591999
 Pd       35.875999       34.651001       39.695999
 Pd       35.875999       34.651001       43.799999
 Pd       35.875999       36.702999       33.540001
 Pd       35.875999       36.702999       37.644001
 Pd       35.875999       36.702999       41.748001
 Pd       35.875999       36.702999       45.852001
 Pd       35.875999       38.755001       35.591999
 Pd       35.875999       38.755001       39.695999
 Pd       35.875999       38.755001       43.799999
 Pd       35.875999       40.806999       37.644001
 Pd       35.875999       40.806999       41.748001
 Pd       37.928001       28.495001       35.591999
 Pd       37.928001       28.495001       39.695999
 Pd       37.928001       28.495001       43.799999
 Pd       37.928001       30.547001       33.540001
 Pd       37.928001       30.547001       37.644001
 Pd       37.928001       30.547001       41.748001
 Pd       37.928001       30.547001       45.852001
 Pd       37.928001       32.598999       35.591999
 Pd       37.928001       32.598999       39.695999
 Pd       37.928001       32.598999       43.799999
 Pd       37.928001       34.651001       33.540001
 Pd       37.928001       34.651001       37.644001
 Pd       37.928001       34.651001       41.748001
 Pd       37.928001       34.651001       45.852001
 Pd       37.928001       36.702999       35.591999
 Pd       37.928001       36.702999       39.695999
 Pd       37.928001       36.702999       43.799999
 Pd       37.928001       38.755001       33.540001
 Pd       37.928001       38.755001       37.644001
 Pd       37.928001       38.755001       41.748001
 Pd       37.928001       38.755001       45.852001
 Pd       37.928001       40.806999       35.591999
 Pd       37.928001       40.806999       39.695999
 Pd       37.928001       40.806999       43.799999
 Pd       39.980000       28.495001       37.644001
 Pd       39.980000       28.495001       41.748001
 Pd       39.980000       30.547001       35.591999
 Pd       39.980000       30.547001       39.695999
 Pd       39.980000       30.547001       43.799999
 Pd       39.980000       32.598999       33.540001
 Pd       39.980000       32.598999       37.644001
 Pd       39.980000       32.598999       41.748001
 Pd       39.980000       32.598999       45.852001
 Pd       39.980000       34.651001       35.591999
 Pd       39.980000       34.651001       39.695999
 Pd       39.980000       34.651001       43.799999
 Pd       39.980000       36.702999       33.540001
 Pd       39.980000       36.702999       37.644001
 Pd       39.980000       36.702999       41.748001
 Pd       39.980000       36.702999       45.852001
 Pd       39.980000       38.755001       35.591999
 Pd       39.980000       38.755001       39.695999
 Pd       39.980000       38.755001       43.799999
 Pd       39.980000       40.806999       37.644001
 Pd       39.980000       40.806999       41.748001
 Pd       42.032001       30.547001       37.644001
 Pd       42.032001       30.547001       41.748001
 Pd       42.032001       32.598999       35.591999
 Pd       42.032001       32.598999       39.695999
 Pd       42.032001       32.598999       43.799999
 Pd       42.032001       34.651001       37.644001
 Pd       42.032001       34.651001       41.748001
 Pd       42.032001       36.702999       35.591999
 Pd       42.032001       36.702999       39.695999
 Pd       42.032001       36.702999       43.799999
 Pd       42.032001       38.755001       37.644001
 Pd       42.032001       38.755001       41.748001
