429
generated from rescale_cell.py
 Pd       24.683175       27.457336       38.250442
 Pd       24.683175       29.434611       36.273169
 Pd       24.683175       29.434611       40.227719
 Pd       24.683175       31.411884       34.295892
 Pd       24.683175       31.411884       38.250442
 Pd       24.683175       31.411884       42.204992
 Pd       24.683175       33.389161       32.318619
 Pd       24.683175       33.389161       36.273169
 Pd       24.683175       33.389161       40.227719
 Pd       24.683175       33.389161       44.182269
 Pd       24.683175       35.366434       34.295892
 Pd       24.683175       35.366434       38.250442
 Pd       24.683175       35.366434       42.204992
 Pd       24.683175       37.343711       36.273169
 Pd       24.683175       37.343711       40.227719
 Pd       24.683175       39.320984       38.250442
 Pd       26.660450       25.480061       38.250442
 Pd       26.660450       27.457336       32.318619
 Pd       26.660450       27.457336       36.273169
 Pd       26.660450       27.457336       40.227719
 Pd       26.660450       27.457336       44.182269
 Pd       26.660450       29.434611       34.295892
 Pd       26.660450       29.434611       38.250442
 Pd       26.660450       29.434611       42.204992
 Pd       26.660450       31.411884       32.318619
 Pd       26.660450       31.411884       36.273169
 Pd       26.660450       31.411884       40.227719
 Pd       26.660450       31.411884       44.182269
 Pd       26.660450       33.389161       30.341344
 Pd       26.660450       33.389161       34.295892
 Pd       26.660450       33.389161       38.250442
 Pd       26.660450       33.389161       42.204992
 Pd       26.660450       33.389161       46.159542
 Pd       26.660450       35.366434       32.318619
 Pd       26.660450       35.366434       36.273169
 Pd       26.660450       35.366434       40.227719
 Pd       26.660450       35.366434       44.182269
 Pd       26.660450       37.343711       34.295892
 Pd       26.660450       37.343711       38.250442
 Pd       26.660450       37.343711       42.204992
 Pd       26.660450       39.320984       32.318619
 Pd       26.660450       39.320984       36.273169
 Pd       26.660450       39.320984       40.227719
 Pd       26.660450       39.320984       44.182269
 Pd       26.660450       41.298261       38.250442
 Pd       28.637725       23.502786       38.250442
 Pd       28.637725       25.480061       32.318619
 Pd       28.637725       25.480061       36.273169
 Pd       28.637725       25.480061       40.227719
 Pd       28.637725       25.480061       44.182269
 Pd       28.637725       27.457336       30.341344
 Pd       28.637725       27.457336       34.295892
 Pd       28.637725       27.457336       38.250442
 Pd       28.637725       27.457336       42.204992
 Pd       28.637725       27.457336       46.159542
 Pd       28.637725       29.434611       32.318619
 Pd       28.637725       29.434611       36.273169
 Pd       28.637725       29.434611       40.227719
 Pd       28.637725       29.434611       44.182269
 Pd       28.637725       31.411884       30.341344
 Pd       28.637725       31.411884       34.295892
 Pd       28.637725       31.411884       38.250442
 Pd       28.637725       31.411884       42.204992
 Pd       28.637725       31.411884       46.159542
 Pd       28.637725       33.389161       28.364069
 Pd       28.637725       33.389161       32.318619
 Pd       28.637725       33.389161       36.273169
 Pd       28.637725       33.389161       40.227719
 Pd       28.637725       33.389161       44.182269
 Pd       28.637725       33.389161       48.136819
 Pd       28.637725       35.366434       30.341344
 Pd       28.637725       35.366434       34.295892
 Pd       28.637725       35.366434       38.250442
 Pd       28.637725       35.366434       42.204992
 Pd       28.637725       35.366434       46.159542
 Pd       28.637725       37.343711       32.318619
 Pd       28.637725       37.343711       36.273169
 Pd       28.637725       37.343711       40.227719
 Pd       28.637725       37.343711       44.182269
 Pd       28.637725       39.320984       30.341344
 Pd       28.637725       39.320984       34.295892
 Pd       28.637725       39.320984       38.250442
 Pd       28.637725       39.320984       42.204992
 Pd       28.637725       39.320984       46.159542
 Pd       28.637725       41.298261       32.318619
 Pd       28.637725       41.298261       36.273169
 Pd       28.637725       41.298261       40.227719
 Pd       28.637725       41.298261       44.182269
 Pd       28.637725       43.275534       38.250442
 Pd       30.615000       23.502786       36.273169
 Pd       30.615000       23.502786       40.227719
 Pd       30.615000       25.480061       34.295892
 Pd       30.615000       25.480061       38.250442
 Pd       30.615000       25.480061       42.204992
 Pd       30.615000       27.457336       32.318619
 Pd       30.615000       27.457336       36.273169
 Pd       30.615000       27.457336       40.227719
 Pd       30.615000       27.457336       44.182269
 Pd       30.615000       29.434611       30.341344
 Pd       30.615000       29.434611       34.295892
 Pd       30.615000       29.434611       38.250442
 Pd       30.615000       29.434611       42.204992
 Pd       30.615000       29.434611       46.159542
 Pd       30.615000       31.411884       28.364069
 Pd       30.615000       31.411884       32.318619
 Pd       30.615000       31.411884       36.273169
 Pd       30.615000       31.411884       40.227719
 Pd       30.615000       31.411884       44.182269
 Pd       30.615000       31.411884       48.136819
 Pd       30.615000       33.389161       30.341344
 Pd       30.615000       33.389161       34.295892
 Pd       30.615000       33.389161       38.250442
 Pd       30.615000       33.389161       42.204992
 Pd       30.615000       33.389161       46.159542
 Pd       30.615000       35.366434       28.364069
 Pd       30.615000       35.366434       32.318619
 Pd       30.615000       35.366434       36.273169
 Pd       30.615000       35.366434       40.227719
 Pd       30.615000       35.366434       44.182269
 Pd       30.615000       35.366434       48.136819
 Pd       30.615000       37.343711       30.341344
 Pd       30.615000       37.343711       34.295892
 Pd       30.615000       37.343711       38.250442
 Pd       30.615000       37.343711       42.204992
 Pd       30.615000       37.343711       46.159542
 Pd       30.615000       39.320984       32.318619
 Pd       30.615000       39.320984       36.273169
 Pd       30.615000       39.320984       40.227719
 Pd       30.615000       39.320984       44.182269
 Pd       30.615000       41.298261       34.295892
 Pd       30.615000       41.298261       38.250442
 Pd       30.615000       41.298261       42.204992
 Pd       30.615000       43.275534       36.273169
 Pd       30.615000       43.275534       40.227719
 Pd       32.592277       23.502786       34.295892
 Pd       32.592277       23.502786       38.250442
 Pd       32.592277       23.502786       42.204992
 Pd       32.592277       25.480061       32.318619
 Pd       32.592277       25.480061       36.273169
 Pd       32.592277       25.480061       40.227719
 Pd       32.592277       25.480061       44.182269
 Pd       32.592277       27.457336       30.341344
 Pd       32.592277       27.457336       34.295892
 Pd       32.592277       27.457336       38.250442
 Pd       32.592277       27.457336       42.204992
 Pd       32.592277       27.457336       46.159542
 Pd       32.592277       29.434611       28.364069
 Pd       32.592277       29.434611       32.318619
 Pd       32.592277       29.434611       36.273169
 Pd       32.592277       29.434611       40.227719
 Pd       32.592277       29.434611       44.182269
 Pd       32.592277       29.434611       48.136819
 Pd       32.592277       31.411884       30.341344
 Pd       32.592277       31.411884       34.295892
 Pd       32.592277       31.411884       38.250442
 Pd       32.592277       31.411884       42.204992
 Pd       32.592277       31.411884       46.159542
 Pd       32.592277       33.389161       28.364069
 Pd       32.592277       33.389161       32.318619
 Pd       32.592277       33.389161       36.273169
 Pd       32.592277       33.389161       40.227719
 Pd       32.592277       33.389161       44.182269
 Pd       32.592277       33.389161       48.136819
 Pd       32.592277       35.366434       30.341344
 Pd       32.592277       35.366434       34.295892
 Pd       32.592277       35.366434       38.250442
 Pd       32.592277       35.366434       42.204992
 Pd       32.592277       35.366434       46.159542
 Pd       32.592277       37.343711       28.364069
 Pd       32.592277       37.343711       32.318619
 Pd       32.592277       37.343711       36.273169
 Pd       32.592277       37.343711       40.227719
 Pd       32.592277       37.343711       44.182269
 Pd       32.592277       37.343711       48.136819
 Pd       32.592277       39.320984       30.341344
 Pd       32.592277       39.320984       34.295892
 Pd       32.592277       39.320984       38.250442
 Pd       32.592277       39.320984       42.204992
 Pd       32.592277       39.320984       46.159542
 Pd       32.592277       41.298261       32.318619
 Pd       32.592277       41.298261       36.273169
 Pd       32.592277       41.298261       40.227719
 Pd       32.592277       41.298261       44.182269
 Pd       32.592277       43.275534       34.295892
 Pd       32.592277       43.275534       38.250442
 Pd       32.592277       43.275534       42.204992
 Pd       34.569550       23.502786       32.318619
 Pd       34.569550       23.502786       36.273169
 Pd       34.569550       23.502786       40.227719
 Pd       34.569550       23.502786       44.182269
 Pd       34.569550       25.480061       30.341344
 Pd       34.569550       25.480061       34.295892
 Pd       34.569550       25.480061       38.250442
 Pd       34.569550       25.480061       42.204992
 Pd       34.569550       25.480061       46.159542
 Pd       34.569550       27.457336       28.364069
 Pd       34.569550       27.457336       32.318619
 Pd       34.569550       27.457336       36.273169
 Pd       34.569550       27.457336       40.227719
 Pd       34.569550       27.457336       44.182269
 Pd       34.569550       27.457336       48.136819
 Pd       34.569550       29.434611       30.341344
 Pd       34.569550       29.434611       34.295892
 Pd       34.569550       29.434611       38.250442
 Pd       34.569550       29.434611       42.204992
 Pd       34.569550       29.434611       46.159542
 Pd       34.569550       31.411884       28.364069
 Pd       34.569550       31.411884       32.318619
 Pd       34.569550       31.411884       36.273169
 Pd       34.569550       31.411884       40.227719
 Pd       34.569550       31.411884       44.182269
 Pd       34.569550       31.411884       48.136819
 Pd       34.569550       33.389161       30.341344
 Pd       34.569550       33.389161       34.295892
 Pd       34.569550       33.389161       38.250442
 Pd       34.569550       33.389161       42.204992
 Pd       34.569550       33.389161       46.159542
 Pd       34.569550       35.366434       28.364069
 Pd       34.569550       35.366434       32.318619
 Pd       34.569550       35.366434       36.273169
 Pd       34.569550       35.366434       40.227719
 Pd       34.569550       35.366434       44.182269
 Pd       34.569550       35.366434       48.136819
 Pd       34.569550       37.343711       30.341344
 Pd       34.569550       37.343711       34.295892
 Pd       34.569550       37.343711       38.250442
 Pd       34.569550       37.343711       42.204992
 Pd       34.569550       37.343711       46.159542
 Pd       34.569550       39.320984       28.364069
 Pd       34.569550       39.320984       32.318619
 Pd       34.569550       39.320984       36.273169
 Pd       34.569550       39.320984       40.227719
 Pd       34.569550       39.320984       44.182269
 Pd       34.569550       39.320984       48.136819
 Pd       34.569550       41.298261       30.341344
 Pd       34.569550       41.298261       34.295892
 Pd       34.569550       41.298261       38.250442
 Pd       34.569550       41.298261       42.204992
 Pd       34.569550       41.298261       46.159542
 Pd       34.569550       43.275534       32.318619
 Pd       34.569550       43.275534       36.273169
 Pd       34.569550       43.275534       40.227719
 Pd       34.569550       43.275534       44.182269
 Pd       36.546827       23.502786       34.295892
 Pd       36.546827       23.502786       38.250442
 Pd       36.546827       23.502786       42.204992
 Pd       36.546827       25.480061       32.318619
 Pd       36.546827       25.480061       36.273169
 Pd       36.546827       25.480061       40.227719
 Pd       36.546827       25.480061       44.182269
 Pd       36.546827       27.457336       30.341344
 Pd       36.546827       27.457336       34.295892
 Pd       36.546827       27.457336       38.250442
 Pd       36.546827       27.457336       42.204992
 Pd       36.546827       27.457336       46.159542
 Pd       36.546827       29.434611       28.364069
 Pd       36.546827       29.434611       32.318619
 Pd       36.546827       29.434611       36.273169
 Pd       36.546827       29.434611       40.227719
 Pd       36.546827       29.434611       44.182269
 Pd       36.546827       29.434611       48.136819
 Pd       36.546827       31.411884       30.341344
 Pd       36.546827       31.411884       34.295892
 Pd       36.546827       31.411884       38.250442
 Pd       36.546827       31.411884       42.204992
 Pd       36.546827       31.411884       46.159542
 Pd       36.546827       33.389161       28.364069
 Pd       36.546827       33.389161       32.318619
 Pd       36.546827       33.389161       36.273169
 Pd       36.546827       33.389161       40.227719
 Pd       36.546827       33.389161       44.182269
 Pd       36.546827       33.389161       48.136819
 Pd       36.546827       35.366434       30.341344
 Pd       36.546827       35.366434       34.295892
 Pd       36.546827       35.366434       38.250442
 Pd       36.546827       35.366434       42.204992
 Pd       36.546827       35.366434       46.159542
 Pd       36.546827       37.343711       28.364069
 Pd       36.546827       37.343711       32.318619
 Pd       36.546827       37.343711       36.273169
 Pd       36.546827       37.343711       40.227719
 Pd       36.546827       37.343711       44.182269
 Pd       36.546827       37.343711       48.136819
 Pd       36.546827       39.320984       30.341344
 Pd       36.546827       39.320984       34.295892
 Pd       36.546827       39.320984       38.250442
 Pd       36.546827       39.320984       42.204992
 Pd       36.546827       39.320984       46.159542
 Pd       36.546827       41.298261       32.318619
 Pd       36.546827       41.298261       36.273169
 Pd       36.546827       41.298261       40.227719
 Pd       36.546827       41.298261       44.182269
 Pd       36.546827       43.275534       34.295892
 Pd       36.546827       43.275534       38.250442
 Pd       36.546827       43.275534       42.204992
 Pd       38.524101       23.502786       36.273169
 Pd       38.524101       23.502786       40.227719
 Pd       38.524101       25.480061       34.295892
 Pd       38.524101       25.480061       38.250442
 Pd       38.524101       25.480061       42.204992
 Pd       38.524101       27.457336       32.318619
 Pd       38.524101       27.457336       36.273169
 Pd       38.524101       27.457336       40.227719
 Pd       38.524101       27.457336       44.182269
 Pd       38.524101       29.434611       30.341344
 Pd       38.524101       29.434611       34.295892
 Pd       38.524101       29.434611       38.250442
 Pd       38.524101       29.434611       42.204992
 Pd       38.524101       29.434611       46.159542
 Pd       38.524101       31.411884       28.364069
 Pd       38.524101       31.411884       32.318619
 Pd       38.524101       31.411884       36.273169
 Pd       38.524101       31.411884       40.227719
 Pd       38.524101       31.411884       44.182269
 Pd       38.524101       31.411884       48.136819
 Pd       38.524101       33.389161       30.341344
 Pd       38.524101       33.389161       34.295892
 Pd       38.524101       33.389161       38.250442
 Pd       38.524101       33.389161       42.204992
 Pd       38.524101       33.389161       46.159542
 Pd       38.524101       35.366434       28.364069
 Pd       38.524101       35.366434       32.318619
 Pd       38.524101       35.366434       36.273169
 Pd       38.524101       35.366434       40.227719
 Pd       38.524101       35.366434       44.182269
 Pd       38.524101       35.366434       48.136819
 Pd       38.524101       37.343711       30.341344
 Pd       38.524101       37.343711       34.295892
 Pd       38.524101       37.343711       38.250442
 Pd       38.524101       37.343711       42.204992
 Pd       38.524101       37.343711       46.159542
 Pd       38.524101       39.320984       32.318619
 Pd       38.524101       39.320984       36.273169
 Pd       38.524101       39.320984       40.227719
 Pd       38.524101       39.320984       44.182269
 Pd       38.524101       41.298261       34.295892
 Pd       38.524101       41.298261       38.250442
 Pd       38.524101       41.298261       42.204992
 Pd       38.524101       43.275534       36.273169
 Pd       38.524101       43.275534       40.227719
 Pd       40.501377       23.502786       38.250442
 Pd       40.501377       25.480061       32.318619
 Pd       40.501377       25.480061       36.273169
 Pd       40.501377       25.480061       40.227719
 Pd       40.501377       25.480061       44.182269
 Pd       40.501377       27.457336       30.341344
 Pd       40.501377       27.457336       34.295892
 Pd       40.501377       27.457336       38.250442
 Pd       40.501377       27.457336       42.204992
 Pd       40.501377       27.457336       46.159542
 Pd       40.501377       29.434611       32.318619
 Pd       40.501377       29.434611       36.273169
 Pd       40.501377       29.434611       40.227719
 Pd       40.501377       29.434611       44.182269
 Pd       40.501377       31.411884       30.341344
 Pd       40.501377       31.411884       34.295892
 Pd       40.501377       31.411884       38.250442
 Pd       40.501377       31.411884       42.204992
 Pd       40.501377       31.411884       46.159542
 Pd       40.501377       33.389161       28.364069
 Pd       40.501377       33.389161       32.318619
 Pd       40.501377       33.389161       36.273169
 Pd       40.501377       33.389161       40.227719
 Pd       40.501377       33.389161       44.182269
 Pd       40.501377       33.389161       48.136819
 Pd       40.501377       35.366434       30.341344
 Pd       40.501377       35.366434       34.295892
 Pd       40.501377       35.366434       38.250442
 Pd       40.501377       35.366434       42.204992
 Pd       40.501377       35.366434       46.159542
 Pd       40.501377       37.343711       32.318619
 Pd       40.501377       37.343711       36.273169
 Pd       40.501377       37.343711       40.227719
 Pd       40.501377       37.343711       44.182269
 Pd       40.501377       39.320984       30.341344
 Pd       40.501377       39.320984       34.295892
 Pd       40.501377       39.320984       38.250442
 Pd       40.501377       39.320984       42.204992
 Pd       40.501377       39.320984       46.159542
 Pd       40.501377       41.298261       32.318619
 Pd       40.501377       41.298261       36.273169
 Pd       40.501377       41.298261       40.227719
 Pd       40.501377       41.298261       44.182269
 Pd       40.501377       43.275534       38.250442
 Pd       42.478651       25.480061       38.250442
 Pd       42.478651       27.457336       32.318619
 Pd       42.478651       27.457336       36.273169
 Pd       42.478651       27.457336       40.227719
 Pd       42.478651       27.457336       44.182269
 Pd       42.478651       29.434611       34.295892
 Pd       42.478651       29.434611       38.250442
 Pd       42.478651       29.434611       42.204992
 Pd       42.478651       31.411884       32.318619
 Pd       42.478651       31.411884       36.273169
 Pd       42.478651       31.411884       40.227719
 Pd       42.478651       31.411884       44.182269
 Pd       42.478651       33.389161       30.341344
 Pd       42.478651       33.389161       34.295892
 Pd       42.478651       33.389161       38.250442
 Pd       42.478651       33.389161       42.204992
 Pd       42.478651       33.389161       46.159542
 Pd       42.478651       35.366434       32.318619
 Pd       42.478651       35.366434       36.273169
 Pd       42.478651       35.366434       40.227719
 Pd       42.478651       35.366434       44.182269
 Pd       42.478651       37.343711       34.295892
 Pd       42.478651       37.343711       38.250442
 Pd       42.478651       37.343711       42.204992
 Pd       42.478651       39.320984       32.318619
 Pd       42.478651       39.320984       36.273169
 Pd       42.478651       39.320984       40.227719
 Pd       42.478651       39.320984       44.182269
 Pd       42.478651       41.298261       38.250442
 Pd       44.455928       27.457336       38.250442
 Pd       44.455928       29.434611       36.273169
 Pd       44.455928       29.434611       40.227719
 Pd       44.455928       31.411884       34.295892
 Pd       44.455928       31.411884       38.250442
 Pd       44.455928       31.411884       42.204992
 Pd       44.455928       33.389161       32.318619
 Pd       44.455928       33.389161       36.273169
 Pd       44.455928       33.389161       40.227719
 Pd       44.455928       33.389161       44.182269
 Pd       44.455928       35.366434       34.295892
 Pd       44.455928       35.366434       38.250442
 Pd       44.455928       35.366434       42.204992
 Pd       44.455928       37.343711       36.273169
 Pd       44.455928       37.343711       40.227719
 Pd       44.455928       39.320984       38.250442
