225
generated from rescale_cell.py
 Pd       33.120158       35.939248       38.869966
 Pd       33.120158       37.948549       36.860668
 Pd       33.120158       37.948549       40.879268
 Pd       33.120158       39.957848       34.851366
 Pd       33.120158       39.957848       38.869966
 Pd       33.120158       39.957848       42.888566
 Pd       33.120158       41.967149       36.860668
 Pd       33.120158       41.967149       40.879268
 Pd       33.120158       43.976448       38.869966
 Pd       35.129457       33.929949       34.851366
 Pd       35.129457       33.929949       38.869966
 Pd       35.129457       33.929949       42.888566
 Pd       35.129457       35.939248       32.842068
 Pd       35.129457       35.939248       36.860668
 Pd       35.129457       35.939248       40.879268
 Pd       35.129457       35.939248       44.897868
 Pd       35.129457       37.948549       34.851366
 Pd       35.129457       37.948549       38.869966
 Pd       35.129457       37.948549       42.888566
 Pd       35.129457       39.957848       32.842068
 Pd       35.129457       39.957848       36.860668
 Pd       35.129457       39.957848       40.879268
 Pd       35.129457       39.957848       44.897868
 Pd       35.129457       41.967149       34.851366
 Pd       35.129457       41.967149       38.869966
 Pd       35.129457       41.967149       42.888566
 Pd       35.129457       43.976448       32.842068
 Pd       35.129457       43.976448       36.860668
 Pd       35.129457       43.976448       40.879268
 Pd       35.129457       43.976448       44.897868
 Pd       35.129457       45.985749       34.851366
 Pd       35.129457       45.985749       38.869966
 Pd       35.129457       45.985749       42.888566
 Pd       37.138758       31.920648       38.869966
 Pd       37.138758       33.929949       32.842068
 Pd       37.138758       33.929949       36.860668
 Pd       37.138758       33.929949       40.879268
 Pd       37.138758       33.929949       44.897868
 Pd       37.138758       35.939248       34.851366
 Pd       37.138758       35.939248       38.869966
 Pd       37.138758       35.939248       42.888566
 Pd       37.138758       37.948549       32.842068
 Pd       37.138758       37.948549       36.860668
 Pd       37.138758       37.948549       40.879268
 Pd       37.138758       37.948549       44.897868
 Pd       37.138758       39.957848       30.832768
 Pd       37.138758       39.957848       34.851366
 Pd       37.138758       39.957848       38.869966
 Pd       37.138758       39.957848       42.888566
 Pd       37.138758       39.957848       46.907166
 Pd       37.138758       41.967149       32.842068
 Pd       37.138758       41.967149       36.860668
 Pd       37.138758       41.967149       40.879268
 Pd       37.138758       41.967149       44.897868
 Pd       37.138758       43.976448       34.851366
 Pd       37.138758       43.976448       38.869966
 Pd       37.138758       43.976448       42.888566
 Pd       37.138758       45.985749       32.842068
 Pd       37.138758       45.985749       36.860668
 Pd       37.138758       45.985749       40.879268
 Pd       37.138758       45.985749       44.897868
 Pd       37.138758       47.995048       38.869966
 Pd       39.148058       31.920648       36.860668
 Pd       39.148058       31.920648       40.879268
 Pd       39.148058       33.929949       34.851366
 Pd       39.148058       33.929949       38.869966
 Pd       39.148058       33.929949       42.888566
 Pd       39.148058       35.939248       32.842068
 Pd       39.148058       35.939248       36.860668
 Pd       39.148058       35.939248       40.879268
 Pd       39.148058       35.939248       44.897868
 Pd       39.148058       37.948549       30.832768
 Pd       39.148058       37.948549       34.851366
 Pd       39.148058       37.948549       38.869966
 Pd       39.148058       37.948549       42.888566
 Pd       39.148058       37.948549       46.907166
 Pd       39.148058       39.957848       32.842068
 Pd       39.148058       39.957848       36.860668
 Pd       39.148058       39.957848       40.879268
 Pd       39.148058       39.957848       44.897868
 Pd       39.148058       41.967149       30.832768
 Pd       39.148058       41.967149       34.851366
 Pd       39.148058       41.967149       38.869966
 Pd       39.148058       41.967149       42.888566
 Pd       39.148058       41.967149       46.907166
 Pd       39.148058       43.976448       32.842068
 Pd       39.148058       43.976448       36.860668
 Pd       39.148058       43.976448       40.879268
 Pd       39.148058       43.976448       44.897868
 Pd       39.148058       45.985749       34.851366
 Pd       39.148058       45.985749       38.869966
 Pd       39.148058       45.985749       42.888566
 Pd       39.148058       47.995048       36.860668
 Pd       39.148058       47.995048       40.879268
 Pd       41.157358       31.920648       34.851366
 Pd       41.157358       31.920648       38.869966
 Pd       41.157358       31.920648       42.888566
 Pd       41.157358       33.929949       32.842068
 Pd       41.157358       33.929949       36.860668
 Pd       41.157358       33.929949       40.879268
 Pd       41.157358       33.929949       44.897868
 Pd       41.157358       35.939248       30.832768
 Pd       41.157358       35.939248       34.851366
 Pd       41.157358       35.939248       38.869966
 Pd       41.157358       35.939248       42.888566
 Pd       41.157358       35.939248       46.907166
 Pd       41.157358       37.948549       32.842068
 Pd       41.157358       37.948549       36.860668
 Pd       41.157358       37.948549       40.879268
 Pd       41.157358       37.948549       44.897868
 Pd       41.157358       39.957848       30.832768
 Pd       41.157358       39.957848       34.851366
 Pd       41.157358       39.957848       38.869966
 Pd       41.157358       39.957848       42.888566
 Pd       41.157358       39.957848       46.907166
 Pd       41.157358       41.967149       32.842068
 Pd       41.157358       41.967149       36.860668
 Pd       41.157358       41.967149       40.879268
 Pd       41.157358       41.967149       44.897868
 Pd       41.157358       43.976448       30.832768
 Pd       41.157358       43.976448       34.851366
 Pd       41.157358       43.976448       38.869966
 Pd       41.157358       43.976448       42.888566
 Pd       41.157358       43.976448       46.907166
 Pd       41.157358       45.985749       32.842068
 Pd       41.157358       45.985749       36.860668
 Pd       41.157358       45.985749       40.879268
 Pd       41.157358       45.985749       44.897868
 Pd       41.157358       47.995048       34.851366
 Pd       41.157358       47.995048       38.869966
 Pd       41.157358       47.995048       42.888566
 Pd       43.166658       31.920648       36.860668
 Pd       43.166658       31.920648       40.879268
 Pd       43.166658       33.929949       34.851366
 Pd       43.166658       33.929949       38.869966
 Pd       43.166658       33.929949       42.888566
 Pd       43.166658       35.939248       32.842068
 Pd       43.166658       35.939248       36.860668
 Pd       43.166658       35.939248       40.879268
 Pd       43.166658       35.939248       44.897868
 Pd       43.166658       37.948549       30.832768
 Pd       43.166658       37.948549       34.851366
 Pd       43.166658       37.948549       38.869966
 Pd       43.166658       37.948549       42.888566
 Pd       43.166658       37.948549       46.907166
 Pd       43.166658       39.957848       32.842068
 Pd       43.166658       39.957848       36.860668
 Pd       43.166658       39.957848       40.879268
 Pd       43.166658       39.957848       44.897868
 Pd       43.166658       41.967149       30.832768
 Pd       43.166658       41.967149       34.851366
 Pd       43.166658       41.967149       38.869966
 Pd       43.166658       41.967149       42.888566
 Pd       43.166658       41.967149       46.907166
 Pd       43.166658       43.976448       32.842068
 Pd       43.166658       43.976448       36.860668
 Pd       43.166658       43.976448       40.879268
 Pd       43.166658       43.976448       44.897868
 Pd       43.166658       45.985749       34.851366
 Pd       43.166658       45.985749       38.869966
 Pd       43.166658       45.985749       42.888566
 Pd       43.166658       47.995048       36.860668
 Pd       43.166658       47.995048       40.879268
 Pd       45.175959       31.920648       38.869966
 Pd       45.175959       33.929949       32.842068
 Pd       45.175959       33.929949       36.860668
 Pd       45.175959       33.929949       40.879268
 Pd       45.175959       33.929949       44.897868
 Pd       45.175959       35.939248       34.851366
 Pd       45.175959       35.939248       38.869966
 Pd       45.175959       35.939248       42.888566
 Pd       45.175959       37.948549       32.842068
 Pd       45.175959       37.948549       36.860668
 Pd       45.175959       37.948549       40.879268
 Pd       45.175959       37.948549       44.897868
 Pd       45.175959       39.957848       30.832768
 Pd       45.175959       39.957848       34.851366
 Pd       45.175959       39.957848       38.869966
 Pd       45.175959       39.957848       42.888566
 Pd       45.175959       39.957848       46.907166
 Pd       45.175959       41.967149       32.842068
 Pd       45.175959       41.967149       36.860668
 Pd       45.175959       41.967149       40.879268
 Pd       45.175959       41.967149       44.897868
 Pd       45.175959       43.976448       34.851366
 Pd       45.175959       43.976448       38.869966
 Pd       45.175959       43.976448       42.888566
 Pd       45.175959       45.985749       32.842068
 Pd       45.175959       45.985749       36.860668
 Pd       45.175959       45.985749       40.879268
 Pd       45.175959       45.985749       44.897868
 Pd       45.175959       47.995048       38.869966
 Pd       47.185258       33.929949       34.851366
 Pd       47.185258       33.929949       38.869966
 Pd       47.185258       33.929949       42.888566
 Pd       47.185258       35.939248       32.842068
 Pd       47.185258       35.939248       36.860668
 Pd       47.185258       35.939248       40.879268
 Pd       47.185258       35.939248       44.897868
 Pd       47.185258       37.948549       34.851366
 Pd       47.185258       37.948549       38.869966
 Pd       47.185258       37.948549       42.888566
 Pd       47.185258       39.957848       32.842068
 Pd       47.185258       39.957848       36.860668
 Pd       47.185258       39.957848       40.879268
 Pd       47.185258       39.957848       44.897868
 Pd       47.185258       41.967149       34.851366
 Pd       47.185258       41.967149       38.869966
 Pd       47.185258       41.967149       42.888566
 Pd       47.185258       43.976448       32.842068
 Pd       47.185258       43.976448       36.860668
 Pd       47.185258       43.976448       40.879268
 Pd       47.185258       43.976448       44.897868
 Pd       47.185258       45.985749       34.851366
 Pd       47.185258       45.985749       38.869966
 Pd       47.185258       45.985749       42.888566
 Pd       49.194559       35.939248       38.869966
 Pd       49.194559       37.948549       36.860668
 Pd       49.194559       37.948549       40.879268
 Pd       49.194559       39.957848       34.851366
 Pd       49.194559       39.957848       38.869966
 Pd       49.194559       39.957848       42.888566
 Pd       49.194559       41.967149       36.860668
 Pd       49.194559       41.967149       40.879268
 Pd       49.194559       43.976448       38.869966
