55
generated from rescale_cell.py
 Pd       36.744137       35.557372       38.456950
 Pd       36.744137       37.545324       36.469002
 Pd       36.744137       37.545324       40.444902
 Pd       36.744137       39.533272       34.481050
 Pd       36.744137       39.533272       38.456950
 Pd       36.744137       39.533272       42.432850
 Pd       36.744137       41.521224       36.469002
 Pd       36.744137       41.521224       40.444902
 Pd       36.744137       43.509172       38.456950
 Pd       38.732086       35.557372       36.469002
 Pd       38.732086       35.557372       40.444902
 Pd       38.732086       37.545324       34.481050
 Pd       38.732086       37.545324       38.456950
 Pd       38.732086       37.545324       42.432850
 Pd       38.732086       39.533272       36.469002
 Pd       38.732086       39.533272       40.444902
 Pd       38.732086       41.521224       34.481050
 Pd       38.732086       41.521224       38.456950
 Pd       38.732086       41.521224       42.432850
 Pd       38.732086       43.509172       36.469002
 Pd       38.732086       43.509172       40.444902
 Pd       40.720037       35.557372       34.481050
 Pd       40.720037       35.557372       38.456950
 Pd       40.720037       35.557372       42.432850
 Pd       40.720037       37.545324       36.469002
 Pd       40.720037       37.545324       40.444902
 Pd       40.720037       39.533272       34.481050
 Pd       40.720037       39.533272       38.456950
 Pd       40.720037       39.533272       42.432850
 Pd       40.720037       41.521224       36.469002
 Pd       40.720037       41.521224       40.444902
 Pd       40.720037       43.509172       34.481050
 Pd       40.720037       43.509172       38.456950
 Pd       40.720037       43.509172       42.432850
 Pd       42.707986       35.557372       36.469002
 Pd       42.707986       35.557372       40.444902
 Pd       42.707986       37.545324       34.481050
 Pd       42.707986       37.545324       38.456950
 Pd       42.707986       37.545324       42.432850
 Pd       42.707986       39.533272       36.469002
 Pd       42.707986       39.533272       40.444902
 Pd       42.707986       41.521224       34.481050
 Pd       42.707986       41.521224       38.456950
 Pd       42.707986       41.521224       42.432850
 Pd       42.707986       43.509172       36.469002
 Pd       42.707986       43.509172       40.444902
 Pd       44.695938       35.557372       38.456950
 Pd       44.695938       37.545324       36.469002
 Pd       44.695938       37.545324       40.444902
 Pd       44.695938       39.533272       34.481050
 Pd       44.695938       39.533272       38.456950
 Pd       44.695938       39.533272       42.432850
 Pd       44.695938       41.521224       36.469002
 Pd       44.695938       41.521224       40.444902
 Pd       44.695938       43.509172       38.456950
