55
generated from rescale_cell.py
 Pd       36.448171       35.270965       38.147188
 Pd       36.448171       37.242904       36.175252
 Pd       36.448171       37.242904       40.119127
 Pd       36.448171       39.214840       34.203313
 Pd       36.448171       39.214840       38.147188
 Pd       36.448171       39.214840       42.091063
 Pd       36.448171       41.186779       36.175252
 Pd       36.448171       41.186779       40.119127
 Pd       36.448171       43.158715       38.147188
 Pd       38.420108       35.270965       36.175252
 Pd       38.420108       35.270965       40.119127
 Pd       38.420108       37.242904       34.203313
 Pd       38.420108       37.242904       38.147188
 Pd       38.420108       37.242904       42.091063
 Pd       38.420108       39.214840       36.175252
 Pd       38.420108       39.214840       40.119127
 Pd       38.420108       41.186779       34.203313
 Pd       38.420108       41.186779       38.147188
 Pd       38.420108       41.186779       42.091063
 Pd       38.420108       43.158715       36.175252
 Pd       38.420108       43.158715       40.119127
 Pd       40.392046       35.270965       34.203313
 Pd       40.392046       35.270965       38.147188
 Pd       40.392046       35.270965       42.091063
 Pd       40.392046       37.242904       36.175252
 Pd       40.392046       37.242904       40.119127
 Pd       40.392046       39.214840       34.203313
 Pd       40.392046       39.214840       38.147188
 Pd       40.392046       39.214840       42.091063
 Pd       40.392046       41.186779       36.175252
 Pd       40.392046       41.186779       40.119127
 Pd       40.392046       43.158715       34.203313
 Pd       40.392046       43.158715       38.147188
 Pd       40.392046       43.158715       42.091063
 Pd       42.363983       35.270965       36.175252
 Pd       42.363983       35.270965       40.119127
 Pd       42.363983       37.242904       34.203313
 Pd       42.363983       37.242904       38.147188
 Pd       42.363983       37.242904       42.091063
 Pd       42.363983       39.214840       36.175252
 Pd       42.363983       39.214840       40.119127
 Pd       42.363983       41.186779       34.203313
 Pd       42.363983       41.186779       38.147188
 Pd       42.363983       41.186779       42.091063
 Pd       42.363983       43.158715       36.175252
 Pd       42.363983       43.158715       40.119127
 Pd       44.335922       35.270965       38.147188
 Pd       44.335922       37.242904       36.175252
 Pd       44.335922       37.242904       40.119127
 Pd       44.335922       39.214840       34.203313
 Pd       44.335922       39.214840       38.147188
 Pd       44.335922       39.214840       42.091063
 Pd       44.335922       41.186779       36.175252
 Pd       44.335922       41.186779       40.119127
 Pd       44.335922       43.158715       38.147188
