257
generated from rescale_cell.py
 Pd       30.745984       34.878968       40.802816
 Pd       34.966192       32.442498       36.106460
 Pd       33.559785       33.254980       38.455129
 Pd       34.966192       32.442498       40.802816
 Pd       33.559785       33.254980       43.150500
 Pd       34.966192       32.442498       45.499169
 Pd       33.559785       34.878968       36.106460
 Pd       32.152394       35.691451       38.455129
 Pd       33.559785       34.878968       40.802816
 Pd       32.152394       35.691451       43.150500
 Pd       33.559785       34.878968       45.499169
 Pd       32.152394       37.315439       36.106460
 Pd       30.745984       38.127921       38.455129
 Pd       32.152394       37.315439       40.802816
 Pd       30.745984       38.127921       43.150500
 Pd       32.152394       37.315439       45.499169
 Pd       30.745984       39.752889       36.106460
 Pd       30.745984       39.752889       40.802816
 Pd       30.745984       39.752889       45.499169
 Pd       37.779994       30.817530       38.455129
 Pd       39.187385       30.005046       40.802816
 Pd       37.779994       30.817530       43.150500
 Pd       37.779994       32.442498       36.106460
 Pd       36.373583       33.254980       38.455129
 Pd       37.779994       32.442498       40.802816
 Pd       36.373583       33.254980       43.150500
 Pd       37.779994       32.442498       45.499169
 Pd       34.966192       35.691451       33.758776
 Pd       36.373583       34.878968       36.106460
 Pd       34.966192       35.691451       38.455129
 Pd       36.373583       34.878968       40.802816
 Pd       34.966192       35.691451       43.150500
 Pd       36.373583       34.878968       45.499169
 Pd       34.966192       35.691451       47.846852
 Pd       33.559785       38.127921       33.758776
 Pd       34.966192       37.315439       36.106460
 Pd       33.559785       38.127921       38.455129
 Pd       34.966192       37.315439       40.802816
 Pd       33.559785       38.127921       43.150500
 Pd       34.966192       37.315439       45.499169
 Pd       33.559785       38.127921       47.846852
 Pd       33.559785       39.752889       36.106460
 Pd       32.152394       40.565371       38.455129
 Pd       33.559785       39.752889       40.802816
 Pd       32.152394       40.565371       43.150500
 Pd       33.559785       39.752889       45.499169
 Pd       32.152394       42.189360       36.106460
 Pd       30.745984       43.001841       38.455129
 Pd       32.152394       42.189360       40.802816
 Pd       30.745984       43.001841       43.150500
 Pd       32.152394       42.189360       45.499169
 Pd       30.745984       44.626809       40.802816
 Pd       40.593793       30.817530       38.455129
 Pd       40.593793       30.817530       43.150500
 Pd       39.187385       33.254980       33.758776
 Pd       40.593793       32.442498       36.106460
 Pd       39.187385       33.254980       38.455129
 Pd       40.593793       32.442498       40.802816
 Pd       39.187385       33.254980       43.150500
 Pd       40.593793       32.442498       45.499169
 Pd       39.187385       33.254980       47.846852
 Pd       37.779994       35.691451       33.758776
 Pd       39.187385       34.878968       36.106460
 Pd       37.779994       35.691451       38.455129
 Pd       39.187385       34.878968       40.802816
 Pd       37.779994       35.691451       43.150500
 Pd       39.187385       34.878968       45.499169
 Pd       37.779994       35.691451       47.846852
 Pd       37.779994       37.315439       31.411093
 Pd       36.373583       38.127921       33.758776
 Pd       37.779994       37.315439       36.106460
 Pd       36.373583       38.127921       38.455129
 Pd       37.779994       37.315439       40.802816
 Pd       36.373583       38.127921       43.150500
 Pd       37.779994       37.315439       45.499169
 Pd       36.373583       38.127921       47.846852
 Pd       37.779994       37.315439       50.194536
 Pd       36.373583       39.752889       31.411093
 Pd       34.966192       40.565371       33.758776
 Pd       36.373583       39.752889       36.106460
 Pd       34.966192       40.565371       38.455129
 Pd       36.373583       39.752889       40.802816
 Pd       34.966192       40.565371       43.150500
 Pd       36.373583       39.752889       45.499169
 Pd       34.966192       40.565371       47.846852
 Pd       36.373583       39.752889       50.194536
 Pd       33.559785       43.001841       33.758776
 Pd       34.966192       42.189360       36.106460
 Pd       33.559785       43.001841       38.455129
 Pd       34.966192       42.189360       40.802816
 Pd       33.559785       43.001841       43.150500
 Pd       34.966192       42.189360       45.499169
 Pd       33.559785       43.001841       47.846852
 Pd       33.559785       44.626809       36.106460
 Pd       32.152394       45.438313       38.455129
 Pd       33.559785       44.626809       40.802816
 Pd       32.152394       45.438313       43.150500
 Pd       33.559785       44.626809       45.499169
 Pd       43.407595       32.442498       36.106460
 Pd       42.001184       33.254980       38.455129
 Pd       43.407595       32.442498       40.802816
 Pd       42.001184       33.254980       43.150500
 Pd       43.407595       32.442498       45.499169
 Pd       40.593793       35.691451       33.758776
 Pd       42.001184       34.878968       36.106460
 Pd       40.593793       35.691451       38.455129
 Pd       42.001184       34.878968       40.802816
 Pd       40.593793       35.691451       43.150500
 Pd       42.001184       34.878968       45.499169
 Pd       40.593793       35.691451       47.846852
 Pd       40.593793       37.315439       31.411093
 Pd       39.187385       38.127921       33.758776
 Pd       40.593793       37.315439       36.106460
 Pd       39.187385       38.127921       38.455129
 Pd       40.593793       37.315439       40.802816
 Pd       39.187385       38.127921       43.150500
 Pd       40.593793       37.315439       45.499169
 Pd       39.187385       38.127921       47.846852
 Pd       40.593793       37.315439       50.194536
 Pd       39.186406       39.752889       31.411093
 Pd       37.779994       40.565371       33.758776
 Pd       39.186406       39.752889       36.106460
 Pd       37.779994       40.565371       38.455129
 Pd       39.186406       39.752889       40.802816
 Pd       37.779994       40.565371       43.150500
 Pd       39.186406       39.752889       45.499169
 Pd       37.779994       40.565371       47.846852
 Pd       39.186406       39.752889       50.194536
 Pd       37.779994       42.189360       31.411093
 Pd       36.373583       43.001841       33.758776
 Pd       37.779994       42.189360       36.106460
 Pd       36.373583       43.001841       38.455129
 Pd       37.779994       42.189360       40.802816
 Pd       36.373583       43.001841       43.150500
 Pd       37.779994       42.189360       45.499169
 Pd       36.373583       43.001841       47.846852
 Pd       37.779994       42.189360       50.194536
 Pd       36.373583       44.626809       36.106460
 Pd       34.966192       45.438313       38.455129
 Pd       36.373583       44.626809       40.802816
 Pd       34.966192       45.438313       43.150500
 Pd       36.373583       44.626809       45.499169
 Pd       34.966192       47.063280       36.106460
 Pd       34.966192       47.063280       40.802816
 Pd       34.966192       47.063280       45.499169
 Pd       44.814986       33.254980       38.455129
 Pd       44.814986       33.254980       43.150500
 Pd       43.407595       35.691451       33.758776
 Pd       44.814986       34.878968       36.106460
 Pd       43.407595       35.691451       38.455129
 Pd       44.814986       34.878968       40.802816
 Pd       43.407595       35.691451       43.150500
 Pd       44.814986       34.878968       45.499169
 Pd       43.407595       35.691451       47.846852
 Pd       42.001184       38.127921       33.758776
 Pd       43.407595       37.315439       36.106460
 Pd       42.001184       38.127921       38.455129
 Pd       43.407595       37.315439       40.802816
 Pd       42.001184       38.127921       43.150500
 Pd       43.407595       37.315439       45.499169
 Pd       42.001184       38.127921       47.846852
 Pd       42.001184       39.752889       31.411093
 Pd       40.593793       40.565371       33.758776
 Pd       42.001184       39.752889       36.106460
 Pd       40.593793       40.565371       38.455129
 Pd       42.001184       39.752889       40.802816
 Pd       40.593793       40.565371       43.150500
 Pd       42.001184       39.752889       45.499169
 Pd       40.593793       40.565371       47.846852
 Pd       42.001184       39.752889       50.194536
 Pd       40.593793       42.189360       31.411093
 Pd       39.187385       43.001841       33.758776
 Pd       40.593793       42.189360       36.106460
 Pd       39.187385       43.001841       38.455129
 Pd       40.593793       42.189360       40.802816
 Pd       39.187385       43.001841       43.150500
 Pd       40.593793       42.189360       45.499169
 Pd       39.187385       43.001841       47.846852
 Pd       40.593793       42.189360       50.194536
 Pd       37.779994       45.438313       33.758776
 Pd       39.187385       44.626809       36.106460
 Pd       37.779994       45.438313       38.455129
 Pd       39.187385       44.626809       40.802816
 Pd       37.779994       45.438313       43.150500
 Pd       39.187385       44.626809       45.499169
 Pd       37.779994       45.438313       47.846852
 Pd       37.779994       47.063280       36.106460
 Pd       36.373583       47.875762       38.455129
 Pd       37.779994       47.063280       40.802816
 Pd       36.373583       47.875762       43.150500
 Pd       37.779994       47.063280       45.499169
 Pd       46.221393       35.691451       38.455129
 Pd       47.628784       34.878968       40.802816
 Pd       46.221393       35.691451       43.150500
 Pd       44.814986       38.127921       33.758776
 Pd       46.221393       37.315439       36.106460
 Pd       44.814986       38.127921       38.455129
 Pd       46.221393       37.315439       40.802816
 Pd       44.814986       38.127921       43.150500
 Pd       46.221393       37.315439       45.499169
 Pd       44.814986       38.127921       47.846852
 Pd       43.407595       40.565371       33.758776
 Pd       44.814986       39.752889       36.106460
 Pd       43.407595       40.565371       38.455129
 Pd       44.814986       39.752889       40.802816
 Pd       43.407595       40.565371       43.150500
 Pd       44.814986       39.752889       45.499169
 Pd       43.407595       40.565371       47.846852
 Pd       42.001184       43.001841       33.758776
 Pd       43.407595       42.189360       36.106460
 Pd       42.001184       43.001841       38.455129
 Pd       43.407595       42.189360       40.802816
 Pd       42.001184       43.001841       43.150500
 Pd       43.407595       42.189360       45.499169
 Pd       42.001184       43.001841       47.846852
 Pd       40.593793       45.438313       33.758776
 Pd       42.001184       44.626809       36.106460
 Pd       40.593793       45.438313       38.455129
 Pd       42.001184       44.626809       40.802816
 Pd       40.593793       45.438313       43.150500
 Pd       42.001184       44.626809       45.499169
 Pd       40.593793       45.438313       47.846852
 Pd       40.593793       47.063280       36.106460
 Pd       39.187385       47.875762       38.455129
 Pd       40.593793       47.063280       40.802816
 Pd       39.187385       47.875762       43.150500
 Pd       40.593793       47.063280       45.499169
 Pd       39.187385       49.499751       40.802816
 Pd       47.628784       38.127921       38.455129
 Pd       47.628784       38.127921       43.150500
 Pd       47.627805       39.752889       36.106460
 Pd       46.221393       40.565371       38.455129
 Pd       47.627805       39.752889       40.802816
 Pd       46.221393       40.565371       43.150500
 Pd       47.627805       39.752889       45.499169
 Pd       44.814986       43.001841       33.758776
 Pd       46.221393       42.189360       36.106460
 Pd       44.814986       43.001841       38.455129
 Pd       46.221393       42.189360       40.802816
 Pd       44.814986       43.001841       43.150500
 Pd       46.221393       42.189360       45.499169
 Pd       44.814986       43.001841       47.846852
 Pd       44.814986       44.626809       36.106460
 Pd       43.407595       45.438313       38.455129
 Pd       44.814986       44.626809       40.802816
 Pd       43.407595       45.438313       43.150500
 Pd       44.814986       44.626809       45.499169
 Pd       43.407595       47.063280       36.106460
 Pd       42.001184       47.875762       38.455129
 Pd       43.407595       47.063280       40.802816
 Pd       42.001184       47.875762       43.150500
 Pd       43.407595       47.063280       45.499169
 Pd       47.628784       43.001841       38.455129
 Pd       47.628784       43.001841       43.150500
 Pd       46.221393       45.438313       38.455129
 Pd       47.628784       44.626809       40.802816
 Pd       46.221393       45.438313       43.150500
