419
generated from rescale_cell.py
 Pd       24.607768       29.395092       35.424921
 Pd       24.607768       29.395092       40.032630
 Pd       30.120968       24.621210       35.424921
 Pd       28.742187       25.416218       37.729257
 Pd       30.120968       24.621210       40.032630
 Pd       27.364368       27.804118       33.121552
 Pd       28.742187       27.008151       35.424921
 Pd       27.364368       27.804118       37.729257
 Pd       28.742187       27.008151       40.032630
 Pd       27.364368       27.804118       42.336000
 Pd       27.364368       29.395092       30.818183
 Pd       25.985587       30.191059       33.121552
 Pd       27.364368       29.395092       35.424921
 Pd       25.985587       30.191059       37.729257
 Pd       27.364368       29.395092       40.032630
 Pd       25.985587       30.191059       42.336000
 Pd       27.364368       29.395092       44.640336
 Pd       25.985587       31.782994       30.818183
 Pd       24.607768       32.578960       33.121552
 Pd       25.985587       31.782994       35.424921
 Pd       24.607768       32.578960       37.729257
 Pd       25.985587       31.782994       40.032630
 Pd       24.607768       32.578960       42.336000
 Pd       25.985587       31.782994       44.640336
 Pd       24.607768       34.169935       35.424921
 Pd       23.228989       34.965901       37.729257
 Pd       24.607768       34.169935       40.032630
 Pd       23.228989       36.556876       35.424921
 Pd       23.228989       36.556876       40.032630
 Pd       31.498788       25.416218       33.121552
 Pd       32.877569       24.621210       35.424921
 Pd       31.498788       25.416218       37.729257
 Pd       32.877569       24.621210       40.032630
 Pd       31.498788       25.416218       42.336000
 Pd       31.498788       27.008151       30.818183
 Pd       30.120968       27.804118       33.121552
 Pd       31.498788       27.008151       35.424921
 Pd       30.120968       27.804118       37.729257
 Pd       31.498788       27.008151       40.032630
 Pd       30.120968       27.804118       42.336000
 Pd       31.498788       27.008151       44.640336
 Pd       30.120968       29.395092       30.818183
 Pd       28.742187       30.191059       33.121552
 Pd       30.120968       29.395092       35.424921
 Pd       28.742187       30.191059       37.729257
 Pd       30.120968       29.395092       40.032630
 Pd       28.742187       30.191059       42.336000
 Pd       30.120968       29.395092       44.640336
 Pd       28.742187       31.782994       30.818183
 Pd       27.364368       32.578960       33.121552
 Pd       28.742187       31.782994       35.424921
 Pd       27.364368       32.578960       37.729257
 Pd       28.742187       31.782994       40.032630
 Pd       27.364368       32.578960       42.336000
 Pd       28.742187       31.782994       44.640336
 Pd       27.364368       34.169935       30.818183
 Pd       25.985587       34.965901       33.121552
 Pd       27.364368       34.169935       35.424921
 Pd       25.985587       34.965901       37.729257
 Pd       27.364368       34.169935       40.032630
 Pd       25.985587       34.965901       42.336000
 Pd       27.364368       34.169935       44.640336
 Pd       25.985587       36.556876       30.818183
 Pd       24.607768       37.352842       33.121552
 Pd       25.985587       36.556876       35.424921
 Pd       24.607768       37.352842       37.729257
 Pd       25.985587       36.556876       40.032630
 Pd       24.607768       37.352842       42.336000
 Pd       25.985587       36.556876       44.640336
 Pd       24.607768       38.944777       35.424921
 Pd       24.607768       38.944777       40.032630
 Pd       34.255386       25.416218       33.121552
 Pd       35.634167       24.621210       35.424921
 Pd       34.255386       25.416218       37.729257
 Pd       35.634167       24.621210       40.032630
 Pd       34.255386       25.416218       42.336000
 Pd       34.255386       27.008151       30.818183
 Pd       32.877569       27.804118       33.121552
 Pd       34.255386       27.008151       35.424921
 Pd       32.877569       27.804118       37.729257
 Pd       34.255386       27.008151       40.032630
 Pd       32.877569       27.804118       42.336000
 Pd       34.255386       27.008151       44.640336
 Pd       31.498788       30.191059       28.514810
 Pd       32.877569       29.395092       30.818183
 Pd       31.498788       30.191059       33.121552
 Pd       32.877569       29.395092       35.424921
 Pd       31.498788       30.191059       37.729257
 Pd       32.877569       29.395092       40.032630
 Pd       31.498788       30.191059       42.336000
 Pd       32.877569       29.395092       44.640336
 Pd       31.498788       30.191059       46.943705
 Pd       30.120968       32.578960       28.514810
 Pd       31.498788       31.782994       30.818183
 Pd       30.120968       32.578960       33.121552
 Pd       31.498788       31.782994       35.424921
 Pd       30.120968       32.578960       37.729257
 Pd       31.498788       31.782994       40.032630
 Pd       30.120968       32.578960       42.336000
 Pd       31.498788       31.782994       44.640336
 Pd       30.120968       32.578960       46.943705
 Pd       28.742187       34.965901       28.514810
 Pd       30.120968       34.169935       30.818183
 Pd       28.742187       34.965901       33.121552
 Pd       30.120968       34.169935       35.424921
 Pd       28.742187       34.965901       37.729257
 Pd       30.120968       34.169935       40.032630
 Pd       28.742187       34.965901       42.336000
 Pd       30.120968       34.169935       44.640336
 Pd       28.742187       34.965901       46.943705
 Pd       28.742187       36.556876       30.818183
 Pd       27.364368       37.352842       33.121552
 Pd       28.742187       36.556876       35.424921
 Pd       27.364368       37.352842       37.729257
 Pd       28.742187       36.556876       40.032630
 Pd       27.364368       37.352842       42.336000
 Pd       28.742187       36.556876       44.640336
 Pd       27.364368       38.944777       30.818183
 Pd       25.985587       39.740742       33.121552
 Pd       27.364368       38.944777       35.424921
 Pd       25.985587       39.740742       37.729257
 Pd       27.364368       38.944777       40.032630
 Pd       25.985587       39.740742       42.336000
 Pd       27.364368       38.944777       44.640336
 Pd       25.985587       41.331718       35.424921
 Pd       25.985587       41.331718       40.032630
 Pd       37.011988       25.416218       33.121552
 Pd       38.389810       24.621210       35.424921
 Pd       37.011988       25.416218       37.729257
 Pd       38.389810       24.621210       40.032630
 Pd       37.011988       25.416218       42.336000
 Pd       37.011988       27.008151       30.818183
 Pd       35.634167       27.804118       33.121552
 Pd       37.011988       27.008151       35.424921
 Pd       35.634167       27.804118       37.729257
 Pd       37.011988       27.008151       40.032630
 Pd       35.634167       27.804118       42.336000
 Pd       37.011988       27.008151       44.640336
 Pd       34.255386       30.191059       28.514810
 Pd       35.634167       29.395092       30.818183
 Pd       34.255386       30.191059       33.121552
 Pd       35.634167       29.395092       35.424921
 Pd       34.255386       30.191059       37.729257
 Pd       35.634167       29.395092       40.032630
 Pd       34.255386       30.191059       42.336000
 Pd       35.634167       29.395092       44.640336
 Pd       34.255386       30.191059       46.943705
 Pd       32.877569       32.578960       28.514810
 Pd       34.255386       31.782994       30.818183
 Pd       32.877569       32.578960       33.121552
 Pd       34.255386       31.782994       35.424921
 Pd       32.877569       32.578960       37.729257
 Pd       34.255386       31.782994       40.032630
 Pd       32.877569       32.578960       42.336000
 Pd       34.255386       31.782994       44.640336
 Pd       32.877569       32.578960       46.943705
 Pd       31.498788       34.965901       28.514810
 Pd       32.877569       34.169935       30.818183
 Pd       31.498788       34.965901       33.121552
 Pd       32.877569       34.169935       35.424921
 Pd       31.498788       34.965901       37.729257
 Pd       32.877569       34.169935       40.032630
 Pd       31.498788       34.965901       42.336000
 Pd       32.877569       34.169935       44.640336
 Pd       31.498788       34.965901       46.943705
 Pd       30.120968       37.352842       28.514810
 Pd       31.498788       36.556876       30.818183
 Pd       30.120968       37.352842       33.121552
 Pd       31.498788       36.556876       35.424921
 Pd       30.120968       37.352842       37.729257
 Pd       31.498788       36.556876       40.032630
 Pd       30.120968       37.352842       42.336000
 Pd       31.498788       36.556876       44.640336
 Pd       30.120968       37.352842       46.943705
 Pd       30.120968       38.944777       30.818183
 Pd       28.742187       39.740742       33.121552
 Pd       30.120968       38.944777       35.424921
 Pd       28.742187       39.740742       37.729257
 Pd       30.120968       38.944777       40.032630
 Pd       28.742187       39.740742       42.336000
 Pd       30.120968       38.944777       44.640336
 Pd       28.742187       41.331718       30.818183
 Pd       27.364368       42.127683       33.121552
 Pd       28.742187       41.331718       35.424921
 Pd       27.364368       42.127683       37.729257
 Pd       28.742187       41.331718       40.032630
 Pd       27.364368       42.127683       42.336000
 Pd       28.742187       41.331718       44.640336
 Pd       27.364368       43.719618       35.424921
 Pd       27.364368       43.719618       40.032630
 Pd       39.768587       25.416218       37.729257
 Pd       38.390769       27.804118       33.121552
 Pd       39.768587       27.008151       35.424921
 Pd       38.390769       27.804118       37.729257
 Pd       39.768587       27.008151       40.032630
 Pd       38.390769       27.804118       42.336000
 Pd       37.011988       30.191059       28.514810
 Pd       38.390769       29.395092       30.818183
 Pd       37.011988       30.191059       33.121552
 Pd       38.390769       29.395092       35.424921
 Pd       37.011988       30.191059       37.729257
 Pd       38.390769       29.395092       40.032630
 Pd       37.011988       30.191059       42.336000
 Pd       38.390769       29.395092       44.640336
 Pd       37.011988       30.191059       46.943705
 Pd       35.634167       32.578960       28.514810
 Pd       37.011988       31.782994       30.818183
 Pd       35.634167       32.578960       33.121552
 Pd       37.011988       31.782994       35.424921
 Pd       35.634167       32.578960       37.729257
 Pd       37.011988       31.782994       40.032630
 Pd       35.634167       32.578960       42.336000
 Pd       37.011988       31.782994       44.640336
 Pd       35.634167       32.578960       46.943705
 Pd       34.255386       34.965901       28.514810
 Pd       35.634167       34.169935       30.818183
 Pd       34.255386       34.965901       33.121552
 Pd       35.634167       34.169935       35.424921
 Pd       34.255386       34.965901       37.729257
 Pd       35.634167       34.169935       40.032630
 Pd       34.255386       34.965901       42.336000
 Pd       35.634167       34.169935       44.640336
 Pd       34.255386       34.965901       46.943705
 Pd       32.877569       37.352842       28.514810
 Pd       34.255386       36.556876       30.818183
 Pd       32.877569       37.352842       33.121552
 Pd       34.255386       36.556876       35.424921
 Pd       32.877569       37.352842       37.729257
 Pd       34.255386       36.556876       40.032630
 Pd       32.877569       37.352842       42.336000
 Pd       34.255386       36.556876       44.640336
 Pd       32.877569       37.352842       46.943705
 Pd       31.498788       39.740742       28.514810
 Pd       32.877569       38.944777       30.818183
 Pd       31.498788       39.740742       33.121552
 Pd       32.877569       38.944777       35.424921
 Pd       31.498788       39.740742       37.729257
 Pd       32.877569       38.944777       40.032630
 Pd       31.498788       39.740742       42.336000
 Pd       32.877569       38.944777       44.640336
 Pd       31.498788       39.740742       46.943705
 Pd       31.498788       41.331718       30.818183
 Pd       30.120968       42.127683       33.121552
 Pd       31.498788       41.331718       35.424921
 Pd       30.120968       42.127683       37.729257
 Pd       31.498788       41.331718       40.032630
 Pd       30.120968       42.127683       42.336000
 Pd       31.498788       41.331718       44.640336
 Pd       30.120968       43.719618       35.424921
 Pd       28.742187       44.514625       37.729257
 Pd       30.120968       43.719618       40.032630
 Pd       41.147368       27.804118       33.121552
 Pd       41.147368       27.804118       37.729257
 Pd       41.147368       27.804118       42.336000
 Pd       41.147368       29.395092       30.818183
 Pd       39.768587       30.191059       33.121552
 Pd       41.147368       29.395092       35.424921
 Pd       39.768587       30.191059       37.729257
 Pd       41.147368       29.395092       40.032630
 Pd       39.768587       30.191059       42.336000
 Pd       41.147368       29.395092       44.640336
 Pd       38.390769       32.578960       28.514810
 Pd       39.768587       31.782994       30.818183
 Pd       38.390769       32.578960       33.121552
 Pd       39.768587       31.782994       35.424921
 Pd       38.390769       32.578960       37.729257
 Pd       39.768587       31.782994       40.032630
 Pd       38.390769       32.578960       42.336000
 Pd       39.768587       31.782994       44.640336
 Pd       38.390769       32.578960       46.943705
 Pd       37.011988       34.965901       28.514810
 Pd       38.390769       34.169935       30.818183
 Pd       37.011988       34.965901       33.121552
 Pd       38.390769       34.169935       35.424921
 Pd       37.011988       34.965901       37.729257
 Pd       38.390769       34.169935       40.032630
 Pd       37.011988       34.965901       42.336000
 Pd       38.390769       34.169935       44.640336
 Pd       37.011988       34.965901       46.943705
 Pd       35.634167       37.352842       28.514810
 Pd       37.011988       36.556876       30.818183
 Pd       35.634167       37.352842       33.121552
 Pd       37.011988       36.556876       35.424921
 Pd       35.634167       37.352842       37.729257
 Pd       37.011988       36.556876       40.032630
 Pd       35.634167       37.352842       42.336000
 Pd       37.011988       36.556876       44.640336
 Pd       35.634167       37.352842       46.943705
 Pd       34.255386       39.740742       28.514810
 Pd       35.634167       38.944777       30.818183
 Pd       34.255386       39.740742       33.121552
 Pd       35.634167       38.944777       35.424921
 Pd       34.255386       39.740742       37.729257
 Pd       35.634167       38.944777       40.032630
 Pd       34.255386       39.740742       42.336000
 Pd       35.634167       38.944777       44.640336
 Pd       34.255386       39.740742       46.943705
 Pd       34.255386       41.331718       30.818183
 Pd       32.877569       42.127683       33.121552
 Pd       34.255386       41.331718       35.424921
 Pd       32.877569       42.127683       37.729257
 Pd       34.255386       41.331718       40.032630
 Pd       32.877569       42.127683       42.336000
 Pd       34.255386       41.331718       44.640336
 Pd       32.877569       43.719618       30.818183
 Pd       31.498788       44.514625       33.121552
 Pd       32.877569       43.719618       35.424921
 Pd       31.498788       44.514625       37.729257
 Pd       32.877569       43.719618       40.032630
 Pd       31.498788       44.514625       42.336000
 Pd       32.877569       43.719618       44.640336
 Pd       42.525189       30.191059       33.121552
 Pd       43.903970       29.395092       35.424921
 Pd       42.525189       30.191059       37.729257
 Pd       43.903970       29.395092       40.032630
 Pd       42.525189       30.191059       42.336000
 Pd       42.525189       31.782994       30.818183
 Pd       41.147368       32.578960       33.121552
 Pd       42.525189       31.782994       35.424921
 Pd       41.147368       32.578960       37.729257
 Pd       42.525189       31.782994       40.032630
 Pd       41.147368       32.578960       42.336000
 Pd       42.525189       31.782994       44.640336
 Pd       39.768587       34.965901       28.514810
 Pd       41.147368       34.169935       30.818183
 Pd       39.768587       34.965901       33.121552
 Pd       41.147368       34.169935       35.424921
 Pd       39.768587       34.965901       37.729257
 Pd       41.147368       34.169935       40.032630
 Pd       39.768587       34.965901       42.336000
 Pd       41.147368       34.169935       44.640336
 Pd       39.768587       34.965901       46.943705
 Pd       38.390769       37.352842       28.514810
 Pd       39.768587       36.556876       30.818183
 Pd       38.390769       37.352842       33.121552
 Pd       39.768587       36.556876       35.424921
 Pd       38.390769       37.352842       37.729257
 Pd       39.768587       36.556876       40.032630
 Pd       38.390769       37.352842       42.336000
 Pd       39.768587       36.556876       44.640336
 Pd       38.390769       37.352842       46.943705
 Pd       37.011988       39.740742       28.514810
 Pd       38.389810       38.944777       30.818183
 Pd       37.011988       39.740742       33.121552
 Pd       38.389810       38.944777       35.424921
 Pd       37.011988       39.740742       37.729257
 Pd       38.389810       38.944777       40.032630
 Pd       37.011988       39.740742       42.336000
 Pd       38.389810       38.944777       44.640336
 Pd       37.011988       39.740742       46.943705
 Pd       37.011988       41.331718       30.818183
 Pd       35.634167       42.127683       33.121552
 Pd       37.011988       41.331718       35.424921
 Pd       35.634167       42.127683       37.729257
 Pd       37.011988       41.331718       40.032630
 Pd       35.634167       42.127683       42.336000
 Pd       37.011988       41.331718       44.640336
 Pd       35.634167       43.719618       30.818183
 Pd       34.255386       44.514625       33.121552
 Pd       35.634167       43.719618       35.424921
 Pd       34.255386       44.514625       37.729257
 Pd       35.634167       43.719618       40.032630
 Pd       34.255386       44.514625       42.336000
 Pd       35.634167       43.719618       44.640336
 Pd       34.255386       46.106559       35.424921
 Pd       34.255386       46.106559       40.032630
 Pd       43.903970       32.578960       33.121552
 Pd       43.903970       32.578960       37.729257
 Pd       43.903970       32.578960       42.336000
 Pd       42.525189       34.965901       33.121552
 Pd       43.903970       34.169935       35.424921
 Pd       42.525189       34.965901       37.729257
 Pd       43.903970       34.169935       40.032630
 Pd       42.525189       34.965901       42.336000
 Pd       42.525189       36.556876       30.818183
 Pd       41.147368       37.352842       33.121552
 Pd       42.525189       36.556876       35.424921
 Pd       41.147368       37.352842       37.729257
 Pd       42.525189       36.556876       40.032630
 Pd       41.147368       37.352842       42.336000
 Pd       42.525189       36.556876       44.640336
 Pd       41.147368       38.944777       30.818183
 Pd       39.768587       39.740742       33.121552
 Pd       41.147368       38.944777       35.424921
 Pd       39.768587       39.740742       37.729257
 Pd       41.147368       38.944777       40.032630
 Pd       39.768587       39.740742       42.336000
 Pd       41.147368       38.944777       44.640336
 Pd       39.768587       41.331718       30.818183
 Pd       38.390769       42.127683       33.121552
 Pd       39.768587       41.331718       35.424921
 Pd       38.390769       42.127683       37.729257
 Pd       39.768587       41.331718       40.032630
 Pd       38.390769       42.127683       42.336000
 Pd       39.768587       41.331718       44.640336
 Pd       37.011988       44.514625       33.121552
 Pd       38.390769       43.719618       35.424921
 Pd       37.011988       44.514625       37.729257
 Pd       38.390769       43.719618       40.032630
 Pd       37.011988       44.514625       42.336000
 Pd       45.281787       34.965901       37.729257
 Pd       43.903970       37.352842       33.121552
 Pd       45.281787       36.556876       35.424921
 Pd       43.903970       37.352842       37.729257
 Pd       45.281787       36.556876       40.032630
 Pd       43.903970       37.352842       42.336000
 Pd       42.525189       39.740742       33.121552
 Pd       43.903970       38.944777       35.424921
 Pd       42.525189       39.740742       37.729257
 Pd       43.903970       38.944777       40.032630
 Pd       42.525189       39.740742       42.336000
 Pd       41.147368       42.127683       33.121552
 Pd       42.525189       41.331718       35.424921
 Pd       41.147368       42.127683       37.729257
 Pd       42.525189       41.331718       40.032630
 Pd       41.147368       42.127683       42.336000
 Pd       41.147368       43.719618       35.424921
 Pd       39.768587       44.514625       37.729257
 Pd       41.147368       43.719618       40.032630
