419
generated from rescale_cell.py
 Pd       24.735422       29.547580       35.595306
 Pd       24.735422       29.547580       40.225177
 Pd       30.277222       24.748934       35.595306
 Pd       28.891288       25.548066       37.910725
 Pd       30.277222       24.748934       40.225177
 Pd       27.506322       27.948353       33.280858
 Pd       28.891288       27.148257       35.595306
 Pd       27.506322       27.948353       37.910725
 Pd       28.891288       27.148257       40.225177
 Pd       27.506322       27.948353       42.539625
 Pd       27.506322       29.547580       30.966410
 Pd       26.120388       30.347677       33.280858
 Pd       27.506322       29.547580       35.595306
 Pd       26.120388       30.347677       37.910725
 Pd       27.506322       29.547580       40.225177
 Pd       26.120388       30.347677       42.539625
 Pd       27.506322       29.547580       44.855044
 Pd       26.120388       31.947870       30.966410
 Pd       24.735422       32.747965       33.280858
 Pd       26.120388       31.947870       35.595306
 Pd       24.735422       32.747965       37.910725
 Pd       26.120388       31.947870       40.225177
 Pd       24.735422       32.747965       42.539625
 Pd       26.120388       31.947870       44.855044
 Pd       24.735422       34.347193       35.595306
 Pd       23.349490       35.147289       37.910725
 Pd       24.735422       34.347193       40.225177
 Pd       23.349490       36.746517       35.595306
 Pd       23.349490       36.746517       40.225177
 Pd       31.662189       25.548066       33.280858
 Pd       33.048123       24.748934       35.595306
 Pd       31.662189       25.548066       37.910725
 Pd       33.048123       24.748934       40.225177
 Pd       31.662189       25.548066       42.539625
 Pd       31.662189       27.148257       30.966410
 Pd       30.277222       27.948353       33.280858
 Pd       31.662189       27.148257       35.595306
 Pd       30.277222       27.948353       37.910725
 Pd       31.662189       27.148257       40.225177
 Pd       30.277222       27.948353       42.539625
 Pd       31.662189       27.148257       44.855044
 Pd       30.277222       29.547580       30.966410
 Pd       28.891288       30.347677       33.280858
 Pd       30.277222       29.547580       35.595306
 Pd       28.891288       30.347677       37.910725
 Pd       30.277222       29.547580       40.225177
 Pd       28.891288       30.347677       42.539625
 Pd       30.277222       29.547580       44.855044
 Pd       28.891288       31.947870       30.966410
 Pd       27.506322       32.747965       33.280858
 Pd       28.891288       31.947870       35.595306
 Pd       27.506322       32.747965       37.910725
 Pd       28.891288       31.947870       40.225177
 Pd       27.506322       32.747965       42.539625
 Pd       28.891288       31.947870       44.855044
 Pd       27.506322       34.347193       30.966410
 Pd       26.120388       35.147289       33.280858
 Pd       27.506322       34.347193       35.595306
 Pd       26.120388       35.147289       37.910725
 Pd       27.506322       34.347193       40.225177
 Pd       26.120388       35.147289       42.539625
 Pd       27.506322       34.347193       44.855044
 Pd       26.120388       36.746517       30.966410
 Pd       24.735422       37.546612       33.280858
 Pd       26.120388       36.746517       35.595306
 Pd       24.735422       37.546612       37.910725
 Pd       26.120388       36.746517       40.225177
 Pd       24.735422       37.546612       42.539625
 Pd       26.120388       36.746517       44.855044
 Pd       24.735422       39.146805       35.595306
 Pd       24.735422       39.146805       40.225177
 Pd       34.433087       25.548066       33.280858
 Pd       35.819021       24.748934       35.595306
 Pd       34.433087       25.548066       37.910725
 Pd       35.819021       24.748934       40.225177
 Pd       34.433087       25.548066       42.539625
 Pd       34.433087       27.148257       30.966410
 Pd       33.048123       27.948353       33.280858
 Pd       34.433087       27.148257       35.595306
 Pd       33.048123       27.948353       37.910725
 Pd       34.433087       27.148257       40.225177
 Pd       33.048123       27.948353       42.539625
 Pd       34.433087       27.148257       44.855044
 Pd       31.662189       30.347677       28.651959
 Pd       33.048123       29.547580       30.966410
 Pd       31.662189       30.347677       33.280858
 Pd       33.048123       29.547580       35.595306
 Pd       31.662189       30.347677       37.910725
 Pd       33.048123       29.547580       40.225177
 Pd       31.662189       30.347677       42.539625
 Pd       33.048123       29.547580       44.855044
 Pd       31.662189       30.347677       47.169492
 Pd       30.277222       32.747965       28.651959
 Pd       31.662189       31.947870       30.966410
 Pd       30.277222       32.747965       33.280858
 Pd       31.662189       31.947870       35.595306
 Pd       30.277222       32.747965       37.910725
 Pd       31.662189       31.947870       40.225177
 Pd       30.277222       32.747965       42.539625
 Pd       31.662189       31.947870       44.855044
 Pd       30.277222       32.747965       47.169492
 Pd       28.891288       35.147289       28.651959
 Pd       30.277222       34.347193       30.966410
 Pd       28.891288       35.147289       33.280858
 Pd       30.277222       34.347193       35.595306
 Pd       28.891288       35.147289       37.910725
 Pd       30.277222       34.347193       40.225177
 Pd       28.891288       35.147289       42.539625
 Pd       30.277222       34.347193       44.855044
 Pd       28.891288       35.147289       47.169492
 Pd       28.891288       36.746517       30.966410
 Pd       27.506322       37.546612       33.280858
 Pd       28.891288       36.746517       35.595306
 Pd       27.506322       37.546612       37.910725
 Pd       28.891288       36.746517       40.225177
 Pd       27.506322       37.546612       42.539625
 Pd       28.891288       36.746517       44.855044
 Pd       27.506322       39.146805       30.966410
 Pd       26.120388       39.946899       33.280858
 Pd       27.506322       39.146805       35.595306
 Pd       26.120388       39.946899       37.910725
 Pd       27.506322       39.146805       40.225177
 Pd       26.120388       39.946899       42.539625
 Pd       27.506322       39.146805       44.855044
 Pd       26.120388       41.546129       35.595306
 Pd       26.120388       41.546129       40.225177
 Pd       37.203989       25.548066       33.280858
 Pd       38.588959       24.748934       35.595306
 Pd       37.203989       25.548066       37.910725
 Pd       38.588959       24.748934       40.225177
 Pd       37.203989       25.548066       42.539625
 Pd       37.203989       27.148257       30.966410
 Pd       35.819021       27.948353       33.280858
 Pd       37.203989       27.148257       35.595306
 Pd       35.819021       27.948353       37.910725
 Pd       37.203989       27.148257       40.225177
 Pd       35.819021       27.948353       42.539625
 Pd       37.203989       27.148257       44.855044
 Pd       34.433087       30.347677       28.651959
 Pd       35.819021       29.547580       30.966410
 Pd       34.433087       30.347677       33.280858
 Pd       35.819021       29.547580       35.595306
 Pd       34.433087       30.347677       37.910725
 Pd       35.819021       29.547580       40.225177
 Pd       34.433087       30.347677       42.539625
 Pd       35.819021       29.547580       44.855044
 Pd       34.433087       30.347677       47.169492
 Pd       33.048123       32.747965       28.651959
 Pd       34.433087       31.947870       30.966410
 Pd       33.048123       32.747965       33.280858
 Pd       34.433087       31.947870       35.595306
 Pd       33.048123       32.747965       37.910725
 Pd       34.433087       31.947870       40.225177
 Pd       33.048123       32.747965       42.539625
 Pd       34.433087       31.947870       44.855044
 Pd       33.048123       32.747965       47.169492
 Pd       31.662189       35.147289       28.651959
 Pd       33.048123       34.347193       30.966410
 Pd       31.662189       35.147289       33.280858
 Pd       33.048123       34.347193       35.595306
 Pd       31.662189       35.147289       37.910725
 Pd       33.048123       34.347193       40.225177
 Pd       31.662189       35.147289       42.539625
 Pd       33.048123       34.347193       44.855044
 Pd       31.662189       35.147289       47.169492
 Pd       30.277222       37.546612       28.651959
 Pd       31.662189       36.746517       30.966410
 Pd       30.277222       37.546612       33.280858
 Pd       31.662189       36.746517       35.595306
 Pd       30.277222       37.546612       37.910725
 Pd       31.662189       36.746517       40.225177
 Pd       30.277222       37.546612       42.539625
 Pd       31.662189       36.746517       44.855044
 Pd       30.277222       37.546612       47.169492
 Pd       30.277222       39.146805       30.966410
 Pd       28.891288       39.946899       33.280858
 Pd       30.277222       39.146805       35.595306
 Pd       28.891288       39.946899       37.910725
 Pd       30.277222       39.146805       40.225177
 Pd       28.891288       39.946899       42.539625
 Pd       30.277222       39.146805       44.855044
 Pd       28.891288       41.546129       30.966410
 Pd       27.506322       42.346223       33.280858
 Pd       28.891288       41.546129       35.595306
 Pd       27.506322       42.346223       37.910725
 Pd       28.891288       41.546129       40.225177
 Pd       27.506322       42.346223       42.539625
 Pd       28.891288       41.546129       44.855044
 Pd       27.506322       43.946416       35.595306
 Pd       27.506322       43.946416       40.225177
 Pd       39.974888       25.548066       37.910725
 Pd       38.589923       27.948353       33.280858
 Pd       39.974888       27.148257       35.595306
 Pd       38.589923       27.948353       37.910725
 Pd       39.974888       27.148257       40.225177
 Pd       38.589923       27.948353       42.539625
 Pd       37.203989       30.347677       28.651959
 Pd       38.589923       29.547580       30.966410
 Pd       37.203989       30.347677       33.280858
 Pd       38.589923       29.547580       35.595306
 Pd       37.203989       30.347677       37.910725
 Pd       38.589923       29.547580       40.225177
 Pd       37.203989       30.347677       42.539625
 Pd       38.589923       29.547580       44.855044
 Pd       37.203989       30.347677       47.169492
 Pd       35.819021       32.747965       28.651959
 Pd       37.203989       31.947870       30.966410
 Pd       35.819021       32.747965       33.280858
 Pd       37.203989       31.947870       35.595306
 Pd       35.819021       32.747965       37.910725
 Pd       37.203989       31.947870       40.225177
 Pd       35.819021       32.747965       42.539625
 Pd       37.203989       31.947870       44.855044
 Pd       35.819021       32.747965       47.169492
 Pd       34.433087       35.147289       28.651959
 Pd       35.819021       34.347193       30.966410
 Pd       34.433087       35.147289       33.280858
 Pd       35.819021       34.347193       35.595306
 Pd       34.433087       35.147289       37.910725
 Pd       35.819021       34.347193       40.225177
 Pd       34.433087       35.147289       42.539625
 Pd       35.819021       34.347193       44.855044
 Pd       34.433087       35.147289       47.169492
 Pd       33.048123       37.546612       28.651959
 Pd       34.433087       36.746517       30.966410
 Pd       33.048123       37.546612       33.280858
 Pd       34.433087       36.746517       35.595306
 Pd       33.048123       37.546612       37.910725
 Pd       34.433087       36.746517       40.225177
 Pd       33.048123       37.546612       42.539625
 Pd       34.433087       36.746517       44.855044
 Pd       33.048123       37.546612       47.169492
 Pd       31.662189       39.946899       28.651959
 Pd       33.048123       39.146805       30.966410
 Pd       31.662189       39.946899       33.280858
 Pd       33.048123       39.146805       35.595306
 Pd       31.662189       39.946899       37.910725
 Pd       33.048123       39.146805       40.225177
 Pd       31.662189       39.946899       42.539625
 Pd       33.048123       39.146805       44.855044
 Pd       31.662189       39.946899       47.169492
 Pd       31.662189       41.546129       30.966410
 Pd       30.277222       42.346223       33.280858
 Pd       31.662189       41.546129       35.595306
 Pd       30.277222       42.346223       37.910725
 Pd       31.662189       41.546129       40.225177
 Pd       30.277222       42.346223       42.539625
 Pd       31.662189       41.546129       44.855044
 Pd       30.277222       43.946416       35.595306
 Pd       28.891288       44.745547       37.910725
 Pd       30.277222       43.946416       40.225177
 Pd       41.360822       27.948353       33.280858
 Pd       41.360822       27.948353       37.910725
 Pd       41.360822       27.948353       42.539625
 Pd       41.360822       29.547580       30.966410
 Pd       39.974888       30.347677       33.280858
 Pd       41.360822       29.547580       35.595306
 Pd       39.974888       30.347677       37.910725
 Pd       41.360822       29.547580       40.225177
 Pd       39.974888       30.347677       42.539625
 Pd       41.360822       29.547580       44.855044
 Pd       38.589923       32.747965       28.651959
 Pd       39.974888       31.947870       30.966410
 Pd       38.589923       32.747965       33.280858
 Pd       39.974888       31.947870       35.595306
 Pd       38.589923       32.747965       37.910725
 Pd       39.974888       31.947870       40.225177
 Pd       38.589923       32.747965       42.539625
 Pd       39.974888       31.947870       44.855044
 Pd       38.589923       32.747965       47.169492
 Pd       37.203989       35.147289       28.651959
 Pd       38.589923       34.347193       30.966410
 Pd       37.203989       35.147289       33.280858
 Pd       38.589923       34.347193       35.595306
 Pd       37.203989       35.147289       37.910725
 Pd       38.589923       34.347193       40.225177
 Pd       37.203989       35.147289       42.539625
 Pd       38.589923       34.347193       44.855044
 Pd       37.203989       35.147289       47.169492
 Pd       35.819021       37.546612       28.651959
 Pd       37.203989       36.746517       30.966410
 Pd       35.819021       37.546612       33.280858
 Pd       37.203989       36.746517       35.595306
 Pd       35.819021       37.546612       37.910725
 Pd       37.203989       36.746517       40.225177
 Pd       35.819021       37.546612       42.539625
 Pd       37.203989       36.746517       44.855044
 Pd       35.819021       37.546612       47.169492
 Pd       34.433087       39.946899       28.651959
 Pd       35.819021       39.146805       30.966410
 Pd       34.433087       39.946899       33.280858
 Pd       35.819021       39.146805       35.595306
 Pd       34.433087       39.946899       37.910725
 Pd       35.819021       39.146805       40.225177
 Pd       34.433087       39.946899       42.539625
 Pd       35.819021       39.146805       44.855044
 Pd       34.433087       39.946899       47.169492
 Pd       34.433087       41.546129       30.966410
 Pd       33.048123       42.346223       33.280858
 Pd       34.433087       41.546129       35.595306
 Pd       33.048123       42.346223       37.910725
 Pd       34.433087       41.546129       40.225177
 Pd       33.048123       42.346223       42.539625
 Pd       34.433087       41.546129       44.855044
 Pd       33.048123       43.946416       30.966410
 Pd       31.662189       44.745547       33.280858
 Pd       33.048123       43.946416       35.595306
 Pd       31.662189       44.745547       37.910725
 Pd       33.048123       43.946416       40.225177
 Pd       31.662189       44.745547       42.539625
 Pd       33.048123       43.946416       44.855044
 Pd       42.745790       30.347677       33.280858
 Pd       44.131724       29.547580       35.595306
 Pd       42.745790       30.347677       37.910725
 Pd       44.131724       29.547580       40.225177
 Pd       42.745790       30.347677       42.539625
 Pd       42.745790       31.947870       30.966410
 Pd       41.360822       32.747965       33.280858
 Pd       42.745790       31.947870       35.595306
 Pd       41.360822       32.747965       37.910725
 Pd       42.745790       31.947870       40.225177
 Pd       41.360822       32.747965       42.539625
 Pd       42.745790       31.947870       44.855044
 Pd       39.974888       35.147289       28.651959
 Pd       41.360822       34.347193       30.966410
 Pd       39.974888       35.147289       33.280858
 Pd       41.360822       34.347193       35.595306
 Pd       39.974888       35.147289       37.910725
 Pd       41.360822       34.347193       40.225177
 Pd       39.974888       35.147289       42.539625
 Pd       41.360822       34.347193       44.855044
 Pd       39.974888       35.147289       47.169492
 Pd       38.589923       37.546612       28.651959
 Pd       39.974888       36.746517       30.966410
 Pd       38.589923       37.546612       33.280858
 Pd       39.974888       36.746517       35.595306
 Pd       38.589923       37.546612       37.910725
 Pd       39.974888       36.746517       40.225177
 Pd       38.589923       37.546612       42.539625
 Pd       39.974888       36.746517       44.855044
 Pd       38.589923       37.546612       47.169492
 Pd       37.203989       39.946899       28.651959
 Pd       38.588959       39.146805       30.966410
 Pd       37.203989       39.946899       33.280858
 Pd       38.588959       39.146805       35.595306
 Pd       37.203989       39.946899       37.910725
 Pd       38.588959       39.146805       40.225177
 Pd       37.203989       39.946899       42.539625
 Pd       38.588959       39.146805       44.855044
 Pd       37.203989       39.946899       47.169492
 Pd       37.203989       41.546129       30.966410
 Pd       35.819021       42.346223       33.280858
 Pd       37.203989       41.546129       35.595306
 Pd       35.819021       42.346223       37.910725
 Pd       37.203989       41.546129       40.225177
 Pd       35.819021       42.346223       42.539625
 Pd       37.203989       41.546129       44.855044
 Pd       35.819021       43.946416       30.966410
 Pd       34.433087       44.745547       33.280858
 Pd       35.819021       43.946416       35.595306
 Pd       34.433087       44.745547       37.910725
 Pd       35.819021       43.946416       40.225177
 Pd       34.433087       44.745547       42.539625
 Pd       35.819021       43.946416       44.855044
 Pd       34.433087       46.345739       35.595306
 Pd       34.433087       46.345739       40.225177
 Pd       44.131724       32.747965       33.280858
 Pd       44.131724       32.747965       37.910725
 Pd       44.131724       32.747965       42.539625
 Pd       42.745790       35.147289       33.280858
 Pd       44.131724       34.347193       35.595306
 Pd       42.745790       35.147289       37.910725
 Pd       44.131724       34.347193       40.225177
 Pd       42.745790       35.147289       42.539625
 Pd       42.745790       36.746517       30.966410
 Pd       41.360822       37.546612       33.280858
 Pd       42.745790       36.746517       35.595306
 Pd       41.360822       37.546612       37.910725
 Pd       42.745790       36.746517       40.225177
 Pd       41.360822       37.546612       42.539625
 Pd       42.745790       36.746517       44.855044
 Pd       41.360822       39.146805       30.966410
 Pd       39.974888       39.946899       33.280858
 Pd       41.360822       39.146805       35.595306
 Pd       39.974888       39.946899       37.910725
 Pd       41.360822       39.146805       40.225177
 Pd       39.974888       39.946899       42.539625
 Pd       41.360822       39.146805       44.855044
 Pd       39.974888       41.546129       30.966410
 Pd       38.589923       42.346223       33.280858
 Pd       39.974888       41.546129       35.595306
 Pd       38.589923       42.346223       37.910725
 Pd       39.974888       41.546129       40.225177
 Pd       38.589923       42.346223       42.539625
 Pd       39.974888       41.546129       44.855044
 Pd       37.203989       44.745547       33.280858
 Pd       38.589923       43.946416       35.595306
 Pd       37.203989       44.745547       37.910725
 Pd       38.589923       43.946416       40.225177
 Pd       37.203989       44.745547       42.539625
 Pd       45.516688       35.147289       37.910725
 Pd       44.131724       37.546612       33.280858
 Pd       45.516688       36.746517       35.595306
 Pd       44.131724       37.546612       37.910725
 Pd       45.516688       36.746517       40.225177
 Pd       44.131724       37.546612       42.539625
 Pd       42.745790       39.946899       33.280858
 Pd       44.131724       39.146805       35.595306
 Pd       42.745790       39.946899       37.910725
 Pd       44.131724       39.146805       40.225177
 Pd       42.745790       39.946899       42.539625
 Pd       41.360822       42.346223       33.280858
 Pd       42.745790       41.546129       35.595306
 Pd       41.360822       42.346223       37.910725
 Pd       42.745790       41.546129       40.225177
 Pd       41.360822       42.346223       42.539625
 Pd       41.360822       43.946416       35.595306
 Pd       39.974888       44.745547       37.910725
 Pd       41.360822       43.946416       40.225177
