135
generated from rescale_cell.py
 Pd       30.589730       29.852557       35.936075
 Pd       29.189491       30.660912       38.273661
 Pd       30.589730       29.852557       40.610270
 Pd       29.189491       32.277622       35.936075
 Pd       27.790230       33.085975       38.273661
 Pd       29.189491       32.277622       40.610270
 Pd       27.790230       34.701710       35.936075
 Pd       27.790230       34.701710       40.610270
 Pd       33.389231       28.236824       38.273661
 Pd       31.988992       30.660912       33.599470
 Pd       33.389231       29.852557       35.936075
 Pd       31.988992       30.660912       38.273661
 Pd       33.389231       29.852557       40.610270
 Pd       31.988992       30.660912       42.946875
 Pd       30.589730       33.085975       33.599470
 Pd       31.988992       32.277622       35.936075
 Pd       30.589730       33.085975       38.273661
 Pd       31.988992       32.277622       40.610270
 Pd       30.589730       33.085975       42.946875
 Pd       29.189491       35.510063       33.599470
 Pd       30.589730       34.701710       35.936075
 Pd       29.189491       35.510063       38.273661
 Pd       30.589730       34.701710       40.610270
 Pd       29.189491       35.510063       42.946875
 Pd       29.189491       37.125798       35.936075
 Pd       27.790230       37.934151       38.273661
 Pd       29.189491       37.125798       40.610270
 Pd       36.188729       28.236824       38.273661
 Pd       34.788490       30.660912       33.599470
 Pd       36.188729       29.852557       35.936075
 Pd       34.788490       30.660912       38.273661
 Pd       36.188729       29.852557       40.610270
 Pd       34.788490       30.660912       42.946875
 Pd       34.788490       32.277622       31.262865
 Pd       33.389231       33.085975       33.599470
 Pd       34.788490       32.277622       35.936075
 Pd       33.389231       33.085975       38.273661
 Pd       34.788490       32.277622       40.610270
 Pd       33.389231       33.085975       42.946875
 Pd       34.788490       32.277622       45.284461
 Pd       33.389231       34.701710       31.262865
 Pd       31.988992       35.510063       33.599470
 Pd       33.389231       34.701710       35.936075
 Pd       31.988992       35.510063       38.273661
 Pd       33.389231       34.701710       40.610270
 Pd       31.988992       35.510063       42.946875
 Pd       33.389231       34.701710       45.284461
 Pd       31.988992       37.125798       31.262865
 Pd       30.589730       37.934151       33.599470
 Pd       31.988992       37.125798       35.936075
 Pd       30.589730       37.934151       38.273661
 Pd       31.988992       37.125798       40.610270
 Pd       30.589730       37.934151       42.946875
 Pd       31.988992       37.125798       45.284461
 Pd       30.589730       39.550861       35.936075
 Pd       29.189491       40.359214       38.273661
 Pd       30.589730       39.550861       40.610270
 Pd       37.587992       30.660912       33.599470
 Pd       38.988231       29.852557       35.936075
 Pd       37.587992       30.660912       38.273661
 Pd       38.988231       29.852557       40.610270
 Pd       37.587992       30.660912       42.946875
 Pd       36.188729       33.085975       33.599470
 Pd       37.587992       32.277622       35.936075
 Pd       36.188729       33.085975       38.273661
 Pd       37.587992       32.277622       40.610270
 Pd       36.188729       33.085975       42.946875
 Pd       36.188729       34.701710       31.262865
 Pd       34.788490       35.510063       33.599470
 Pd       36.188729       34.701710       35.936075
 Pd       34.788490       35.510063       38.273661
 Pd       36.188729       34.701710       40.610270
 Pd       34.788490       35.510063       42.946875
 Pd       36.188729       34.701710       45.284461
 Pd       34.788490       37.125798       31.262865
 Pd       33.389231       37.934151       33.599470
 Pd       34.788490       37.125798       35.936075
 Pd       33.389231       37.934151       38.273661
 Pd       34.788490       37.125798       40.610270
 Pd       33.389231       37.934151       42.946875
 Pd       34.788490       37.125798       45.284461
 Pd       31.988992       40.359214       33.599470
 Pd       33.389231       39.550861       35.936075
 Pd       31.988992       40.359214       38.273661
 Pd       33.389231       39.550861       40.610270
 Pd       31.988992       40.359214       42.946875
 Pd       31.988992       41.974949       35.936075
 Pd       31.988992       41.974949       40.610270
 Pd       40.387491       30.660912       38.273661
 Pd       38.988231       33.085975       33.599470
 Pd       40.387491       32.277622       35.936075
 Pd       38.988231       33.085975       38.273661
 Pd       40.387491       32.277622       40.610270
 Pd       38.988231       33.085975       42.946875
 Pd       37.587992       35.510063       33.599470
 Pd       38.988231       34.701710       35.936075
 Pd       37.587992       35.510063       38.273661
 Pd       38.988231       34.701710       40.610270
 Pd       37.587992       35.510063       42.946875
 Pd       37.587992       37.125798       31.262865
 Pd       36.188729       37.934151       33.599470
 Pd       37.587992       37.125798       35.936075
 Pd       36.188729       37.934151       38.273661
 Pd       37.587992       37.125798       40.610270
 Pd       36.188729       37.934151       42.946875
 Pd       37.587992       37.125798       45.284461
 Pd       34.788490       40.359214       33.599470
 Pd       36.188729       39.550861       35.936075
 Pd       34.788490       40.359214       38.273661
 Pd       36.188729       39.550861       40.610270
 Pd       34.788490       40.359214       42.946875
 Pd       34.788490       41.974949       35.936075
 Pd       33.389231       42.783302       38.273661
 Pd       34.788490       41.974949       40.610270
 Pd       41.787730       33.085975       38.273661
 Pd       40.387491       35.510063       33.599470
 Pd       41.787730       34.701710       35.936075
 Pd       40.387491       35.510063       38.273661
 Pd       41.787730       34.701710       40.610270
 Pd       40.387491       35.510063       42.946875
 Pd       38.988231       37.934151       33.599470
 Pd       40.387491       37.125798       35.936075
 Pd       38.988231       37.934151       38.273661
 Pd       40.387491       37.125798       40.610270
 Pd       38.988231       37.934151       42.946875
 Pd       37.587992       40.359214       33.599470
 Pd       38.987257       39.550861       35.936075
 Pd       37.587992       40.359214       38.273661
 Pd       38.987257       39.550861       40.610270
 Pd       37.587992       40.359214       42.946875
 Pd       37.587992       41.974949       35.936075
 Pd       36.188729       42.783302       38.273661
 Pd       37.587992       41.974949       40.610270
 Pd       41.787730       37.934151       38.273661
 Pd       40.387491       40.359214       38.273661
