135
generated from rescale_cell.py
 Pd       31.058492       30.310023       36.447229
 Pd       29.636796       31.130765       38.818064
 Pd       31.058492       30.310023       41.187909
 Pd       29.636796       32.772249       36.447229
 Pd       28.216092       33.592990       38.818064
 Pd       29.636796       32.772249       41.187909
 Pd       28.216092       35.233485       36.447229
 Pd       28.216092       35.233485       41.187909
 Pd       33.900893       28.669530       38.818064
 Pd       32.479197       31.130765       34.077388
 Pd       33.900893       30.310023       36.447229
 Pd       32.479197       31.130765       38.818064
 Pd       33.900893       30.310023       41.187909
 Pd       32.479197       31.130765       43.557750
 Pd       31.058492       33.592990       34.077388
 Pd       32.479197       32.772249       36.447229
 Pd       31.058492       33.592990       38.818064
 Pd       32.479197       32.772249       41.187909
 Pd       31.058492       33.592990       43.557750
 Pd       29.636796       36.054225       34.077388
 Pd       31.058492       35.233485       36.447229
 Pd       29.636796       36.054225       38.818064
 Pd       31.058492       35.233485       41.187909
 Pd       29.636796       36.054225       43.557750
 Pd       29.636796       37.694720       36.447229
 Pd       28.216092       38.515461       38.818064
 Pd       29.636796       37.694720       41.187909
 Pd       36.743291       28.669530       38.818064
 Pd       35.321595       31.130765       34.077388
 Pd       36.743291       30.310023       36.447229
 Pd       35.321595       31.130765       38.818064
 Pd       36.743291       30.310023       41.187909
 Pd       35.321595       31.130765       43.557750
 Pd       35.321595       32.772249       31.707547
 Pd       33.900893       33.592990       34.077388
 Pd       35.321595       32.772249       36.447229
 Pd       33.900893       33.592990       38.818064
 Pd       35.321595       32.772249       41.187909
 Pd       33.900893       33.592990       43.557750
 Pd       35.321595       32.772249       45.928585
 Pd       33.900893       35.233485       31.707547
 Pd       32.479197       36.054225       34.077388
 Pd       33.900893       35.233485       36.447229
 Pd       32.479197       36.054225       38.818064
 Pd       33.900893       35.233485       41.187909
 Pd       32.479197       36.054225       43.557750
 Pd       33.900893       35.233485       45.928585
 Pd       32.479197       37.694720       31.707547
 Pd       31.058492       38.515461       34.077388
 Pd       32.479197       37.694720       36.447229
 Pd       31.058492       38.515461       38.818064
 Pd       32.479197       37.694720       41.187909
 Pd       31.058492       38.515461       43.557750
 Pd       32.479197       37.694720       45.928585
 Pd       31.058492       40.156945       36.447229
 Pd       29.636796       40.977685       38.818064
 Pd       31.058492       40.156945       41.187909
 Pd       38.163997       31.130765       34.077388
 Pd       39.585693       30.310023       36.447229
 Pd       38.163997       31.130765       38.818064
 Pd       39.585693       30.310023       41.187909
 Pd       38.163997       31.130765       43.557750
 Pd       36.743291       33.592990       34.077388
 Pd       38.163997       32.772249       36.447229
 Pd       36.743291       33.592990       38.818064
 Pd       38.163997       32.772249       41.187909
 Pd       36.743291       33.592990       43.557750
 Pd       36.743291       35.233485       31.707547
 Pd       35.321595       36.054225       34.077388
 Pd       36.743291       35.233485       36.447229
 Pd       35.321595       36.054225       38.818064
 Pd       36.743291       35.233485       41.187909
 Pd       35.321595       36.054225       43.557750
 Pd       36.743291       35.233485       45.928585
 Pd       35.321595       37.694720       31.707547
 Pd       33.900893       38.515461       34.077388
 Pd       35.321595       37.694720       36.447229
 Pd       33.900893       38.515461       38.818064
 Pd       35.321595       37.694720       41.187909
 Pd       33.900893       38.515461       43.557750
 Pd       35.321595       37.694720       45.928585
 Pd       32.479197       40.977685       34.077388
 Pd       33.900893       40.156945       36.447229
 Pd       32.479197       40.977685       38.818064
 Pd       33.900893       40.156945       41.187909
 Pd       32.479197       40.977685       43.557750
 Pd       32.479197       42.618180       36.447229
 Pd       32.479197       42.618180       41.187909
 Pd       41.006396       31.130765       38.818064
 Pd       39.585693       33.592990       34.077388
 Pd       41.006396       32.772249       36.447229
 Pd       39.585693       33.592990       38.818064
 Pd       41.006396       32.772249       41.187909
 Pd       39.585693       33.592990       43.557750
 Pd       38.163997       36.054225       34.077388
 Pd       39.585693       35.233485       36.447229
 Pd       38.163997       36.054225       38.818064
 Pd       39.585693       35.233485       41.187909
 Pd       38.163997       36.054225       43.557750
 Pd       38.163997       37.694720       31.707547
 Pd       36.743291       38.515461       34.077388
 Pd       38.163997       37.694720       36.447229
 Pd       36.743291       38.515461       38.818064
 Pd       38.163997       37.694720       41.187909
 Pd       36.743291       38.515461       43.557750
 Pd       38.163997       37.694720       45.928585
 Pd       35.321595       40.977685       34.077388
 Pd       36.743291       40.156945       36.447229
 Pd       35.321595       40.977685       38.818064
 Pd       36.743291       40.156945       41.187909
 Pd       35.321595       40.977685       43.557750
 Pd       35.321595       42.618180       36.447229
 Pd       33.900893       43.438920       38.818064
 Pd       35.321595       42.618180       41.187909
 Pd       42.428092       33.592990       38.818064
 Pd       41.006396       36.054225       34.077388
 Pd       42.428092       35.233485       36.447229
 Pd       41.006396       36.054225       38.818064
 Pd       42.428092       35.233485       41.187909
 Pd       41.006396       36.054225       43.557750
 Pd       39.585693       38.515461       34.077388
 Pd       41.006396       37.694720       36.447229
 Pd       39.585693       38.515461       38.818064
 Pd       41.006396       37.694720       41.187909
 Pd       39.585693       38.515461       43.557750
 Pd       38.163997       40.977685       34.077388
 Pd       39.584704       40.156945       36.447229
 Pd       38.163997       40.977685       38.818064
 Pd       39.584704       40.156945       41.187909
 Pd       38.163997       40.977685       43.557750
 Pd       38.163997       42.618180       36.447229
 Pd       36.743291       43.438920       38.818064
 Pd       38.163997       42.618180       41.187909
 Pd       42.428092       38.515461       38.818064
 Pd       41.006396       40.977685       38.818064
