57
generated from rescale_cell.py
 Pd       35.726594       34.258564       40.128904
 Pd       34.344237       36.651696       40.128904
 Pd       32.962846       39.045791       40.128904
 Pd       37.107989       35.056595       37.819991
 Pd       38.490346       34.258564       40.128904
 Pd       37.107989       35.056595       42.437812
 Pd       37.107989       36.651696       35.510114
 Pd       35.726594       37.449727       37.819991
 Pd       37.107989       36.651696       40.128904
 Pd       35.726594       37.449727       42.437812
 Pd       37.107989       36.651696       44.747690
 Pd       35.726594       39.045791       35.510114
 Pd       34.344237       39.843821       37.819991
 Pd       35.726594       39.045791       40.128904
 Pd       34.344237       39.843821       42.437812
 Pd       35.726594       39.045791       44.747690
 Pd       34.344237       41.438923       40.128904
 Pd       39.871738       35.056595       37.819991
 Pd       41.254095       34.258564       40.128904
 Pd       39.871738       35.056595       42.437812
 Pd       39.871738       36.651696       35.510114
 Pd       38.490346       37.449727       37.819991
 Pd       39.871738       36.651696       40.128904
 Pd       38.490346       37.449727       42.437812
 Pd       39.871738       36.651696       44.747690
 Pd       38.489384       39.045791       35.510114
 Pd       37.107989       39.843821       37.819991
 Pd       38.489384       39.045791       40.128904
 Pd       37.107989       39.843821       42.437812
 Pd       38.489384       39.045791       44.747690
 Pd       37.107989       41.438923       35.510114
 Pd       35.726594       42.236953       37.819991
 Pd       37.107989       41.438923       40.128904
 Pd       35.726594       42.236953       42.437812
 Pd       37.107989       41.438923       44.747690
 Pd       35.726594       43.833017       40.128904
 Pd       41.254095       37.449727       37.819991
 Pd       42.635489       36.651696       40.128904
 Pd       41.254095       37.449727       42.437812
 Pd       41.254095       39.045791       35.510114
 Pd       39.871738       39.843821       37.819991
 Pd       41.254095       39.045791       40.128904
 Pd       39.871738       39.843821       42.437812
 Pd       41.254095       39.045791       44.747690
 Pd       39.871738       41.438923       35.510114
 Pd       38.490346       42.236953       37.819991
 Pd       39.871738       41.438923       40.128904
 Pd       38.490346       42.236953       42.437812
 Pd       39.871738       41.438923       44.747690
 Pd       38.490346       43.833017       40.128904
 Pd       42.635489       39.843821       37.819991
 Pd       44.017847       39.045791       40.128904
 Pd       42.635489       39.843821       42.437812
 Pd       41.254095       42.236953       37.819991
 Pd       42.635489       41.438923       40.128904
 Pd       41.254095       42.236953       42.437812
 Pd       41.254095       43.833017       40.128904
