419
generated from rescale_cell.py
 Pd       24.671595       29.471336       35.510114
 Pd       24.671595       29.471336       40.128904
 Pd       30.199095       24.685072       35.510114
 Pd       28.816738       25.482142       37.819991
 Pd       30.199095       24.685072       40.128904
 Pd       27.435345       27.876236       33.201205
 Pd       28.816738       27.078204       35.510114
 Pd       27.435345       27.876236       37.819991
 Pd       28.816738       27.078204       40.128904
 Pd       27.435345       27.876236       42.437812
 Pd       27.435345       29.471336       30.892297
 Pd       26.052988       30.269368       33.201205
 Pd       27.435345       29.471336       35.510114
 Pd       26.052988       30.269368       37.819991
 Pd       27.435345       29.471336       40.128904
 Pd       26.052988       30.269368       42.437812
 Pd       27.435345       29.471336       44.747690
 Pd       26.052988       31.865432       30.892297
 Pd       24.671595       32.663463       33.201205
 Pd       26.052988       31.865432       35.510114
 Pd       24.671595       32.663463       37.819991
 Pd       26.052988       31.865432       40.128904
 Pd       24.671595       32.663463       42.437812
 Pd       26.052988       31.865432       44.747690
 Pd       24.671595       34.258564       35.510114
 Pd       23.289239       35.056595       37.819991
 Pd       24.671595       34.258564       40.128904
 Pd       23.289239       36.651696       35.510114
 Pd       23.289239       36.651696       40.128904
 Pd       31.580489       25.482142       33.201205
 Pd       32.962846       24.685072       35.510114
 Pd       31.580489       25.482142       37.819991
 Pd       32.962846       24.685072       40.128904
 Pd       31.580489       25.482142       42.437812
 Pd       31.580489       27.078204       30.892297
 Pd       30.199095       27.876236       33.201205
 Pd       31.580489       27.078204       35.510114
 Pd       30.199095       27.876236       37.819991
 Pd       31.580489       27.078204       40.128904
 Pd       30.199095       27.876236       42.437812
 Pd       31.580489       27.078204       44.747690
 Pd       30.199095       29.471336       30.892297
 Pd       28.816738       30.269368       33.201205
 Pd       30.199095       29.471336       35.510114
 Pd       28.816738       30.269368       37.819991
 Pd       30.199095       29.471336       40.128904
 Pd       28.816738       30.269368       42.437812
 Pd       30.199095       29.471336       44.747690
 Pd       28.816738       31.865432       30.892297
 Pd       27.435345       32.663463       33.201205
 Pd       28.816738       31.865432       35.510114
 Pd       27.435345       32.663463       37.819991
 Pd       28.816738       31.865432       40.128904
 Pd       27.435345       32.663463       42.437812
 Pd       28.816738       31.865432       44.747690
 Pd       27.435345       34.258564       30.892297
 Pd       26.052988       35.056595       33.201205
 Pd       27.435345       34.258564       35.510114
 Pd       26.052988       35.056595       37.819991
 Pd       27.435345       34.258564       40.128904
 Pd       26.052988       35.056595       42.437812
 Pd       27.435345       34.258564       44.747690
 Pd       26.052988       36.651696       30.892297
 Pd       24.671595       37.449727       33.201205
 Pd       26.052988       36.651696       35.510114
 Pd       24.671595       37.449727       37.819991
 Pd       26.052988       36.651696       40.128904
 Pd       24.671595       37.449727       42.437812
 Pd       26.052988       36.651696       44.747690
 Pd       24.671595       39.045791       35.510114
 Pd       24.671595       39.045791       40.128904
 Pd       34.344237       25.482142       33.201205
 Pd       35.726594       24.685072       35.510114
 Pd       34.344237       25.482142       37.819991
 Pd       35.726594       24.685072       40.128904
 Pd       34.344237       25.482142       42.437812
 Pd       34.344237       27.078204       30.892297
 Pd       32.962846       27.876236       33.201205
 Pd       34.344237       27.078204       35.510114
 Pd       32.962846       27.876236       37.819991
 Pd       34.344237       27.078204       40.128904
 Pd       32.962846       27.876236       42.437812
 Pd       34.344237       27.078204       44.747690
 Pd       31.580489       30.269368       28.583384
 Pd       32.962846       29.471336       30.892297
 Pd       31.580489       30.269368       33.201205
 Pd       32.962846       29.471336       35.510114
 Pd       31.580489       30.269368       37.819991
 Pd       32.962846       29.471336       40.128904
 Pd       31.580489       30.269368       42.437812
 Pd       32.962846       29.471336       44.747690
 Pd       31.580489       30.269368       47.056598
 Pd       30.199095       32.663463       28.583384
 Pd       31.580489       31.865432       30.892297
 Pd       30.199095       32.663463       33.201205
 Pd       31.580489       31.865432       35.510114
 Pd       30.199095       32.663463       37.819991
 Pd       31.580489       31.865432       40.128904
 Pd       30.199095       32.663463       42.437812
 Pd       31.580489       31.865432       44.747690
 Pd       30.199095       32.663463       47.056598
 Pd       28.816738       35.056595       28.583384
 Pd       30.199095       34.258564       30.892297
 Pd       28.816738       35.056595       33.201205
 Pd       30.199095       34.258564       35.510114
 Pd       28.816738       35.056595       37.819991
 Pd       30.199095       34.258564       40.128904
 Pd       28.816738       35.056595       42.437812
 Pd       30.199095       34.258564       44.747690
 Pd       28.816738       35.056595       47.056598
 Pd       28.816738       36.651696       30.892297
 Pd       27.435345       37.449727       33.201205
 Pd       28.816738       36.651696       35.510114
 Pd       27.435345       37.449727       37.819991
 Pd       28.816738       36.651696       40.128904
 Pd       27.435345       37.449727       42.437812
 Pd       28.816738       36.651696       44.747690
 Pd       27.435345       39.045791       30.892297
 Pd       26.052988       39.843821       33.201205
 Pd       27.435345       39.045791       35.510114
 Pd       26.052988       39.843821       37.819991
 Pd       27.435345       39.045791       40.128904
 Pd       26.052988       39.843821       42.437812
 Pd       27.435345       39.045791       44.747690
 Pd       26.052988       41.438923       35.510114
 Pd       26.052988       41.438923       40.128904
 Pd       37.107989       25.482142       33.201205
 Pd       38.489384       24.685072       35.510114
 Pd       37.107989       25.482142       37.819991
 Pd       38.489384       24.685072       40.128904
 Pd       37.107989       25.482142       42.437812
 Pd       37.107989       27.078204       30.892297
 Pd       35.726594       27.876236       33.201205
 Pd       37.107989       27.078204       35.510114
 Pd       35.726594       27.876236       37.819991
 Pd       37.107989       27.078204       40.128904
 Pd       35.726594       27.876236       42.437812
 Pd       37.107989       27.078204       44.747690
 Pd       34.344237       30.269368       28.583384
 Pd       35.726594       29.471336       30.892297
 Pd       34.344237       30.269368       33.201205
 Pd       35.726594       29.471336       35.510114
 Pd       34.344237       30.269368       37.819991
 Pd       35.726594       29.471336       40.128904
 Pd       34.344237       30.269368       42.437812
 Pd       35.726594       29.471336       44.747690
 Pd       34.344237       30.269368       47.056598
 Pd       32.962846       32.663463       28.583384
 Pd       34.344237       31.865432       30.892297
 Pd       32.962846       32.663463       33.201205
 Pd       34.344237       31.865432       35.510114
 Pd       32.962846       32.663463       37.819991
 Pd       34.344237       31.865432       40.128904
 Pd       32.962846       32.663463       42.437812
 Pd       34.344237       31.865432       44.747690
 Pd       32.962846       32.663463       47.056598
 Pd       31.580489       35.056595       28.583384
 Pd       32.962846       34.258564       30.892297
 Pd       31.580489       35.056595       33.201205
 Pd       32.962846       34.258564       35.510114
 Pd       31.580489       35.056595       37.819991
 Pd       32.962846       34.258564       40.128904
 Pd       31.580489       35.056595       42.437812
 Pd       32.962846       34.258564       44.747690
 Pd       31.580489       35.056595       47.056598
 Pd       30.199095       37.449727       28.583384
 Pd       31.580489       36.651696       30.892297
 Pd       30.199095       37.449727       33.201205
 Pd       31.580489       36.651696       35.510114
 Pd       30.199095       37.449727       37.819991
 Pd       31.580489       36.651696       40.128904
 Pd       30.199095       37.449727       42.437812
 Pd       31.580489       36.651696       44.747690
 Pd       30.199095       37.449727       47.056598
 Pd       30.199095       39.045791       30.892297
 Pd       28.816738       39.843821       33.201205
 Pd       30.199095       39.045791       35.510114
 Pd       28.816738       39.843821       37.819991
 Pd       30.199095       39.045791       40.128904
 Pd       28.816738       39.843821       42.437812
 Pd       30.199095       39.045791       44.747690
 Pd       28.816738       41.438923       30.892297
 Pd       27.435345       42.236953       33.201205
 Pd       28.816738       41.438923       35.510114
 Pd       27.435345       42.236953       37.819991
 Pd       28.816738       41.438923       40.128904
 Pd       27.435345       42.236953       42.437812
 Pd       28.816738       41.438923       44.747690
 Pd       27.435345       43.833017       35.510114
 Pd       27.435345       43.833017       40.128904
 Pd       39.871738       25.482142       37.819991
 Pd       38.490346       27.876236       33.201205
 Pd       39.871738       27.078204       35.510114
 Pd       38.490346       27.876236       37.819991
 Pd       39.871738       27.078204       40.128904
 Pd       38.490346       27.876236       42.437812
 Pd       37.107989       30.269368       28.583384
 Pd       38.490346       29.471336       30.892297
 Pd       37.107989       30.269368       33.201205
 Pd       38.490346       29.471336       35.510114
 Pd       37.107989       30.269368       37.819991
 Pd       38.490346       29.471336       40.128904
 Pd       37.107989       30.269368       42.437812
 Pd       38.490346       29.471336       44.747690
 Pd       37.107989       30.269368       47.056598
 Pd       35.726594       32.663463       28.583384
 Pd       37.107989       31.865432       30.892297
 Pd       35.726594       32.663463       33.201205
 Pd       37.107989       31.865432       35.510114
 Pd       35.726594       32.663463       37.819991
 Pd       37.107989       31.865432       40.128904
 Pd       35.726594       32.663463       42.437812
 Pd       37.107989       31.865432       44.747690
 Pd       35.726594       32.663463       47.056598
 Pd       34.344237       35.056595       28.583384
 Pd       35.726594       34.258564       30.892297
 Pd       34.344237       35.056595       33.201205
 Pd       35.726594       34.258564       35.510114
 Pd       34.344237       35.056595       37.819991
 Pd       35.726594       34.258564       40.128904
 Pd       34.344237       35.056595       42.437812
 Pd       35.726594       34.258564       44.747690
 Pd       34.344237       35.056595       47.056598
 Pd       32.962846       37.449727       28.583384
 Pd       34.344237       36.651696       30.892297
 Pd       32.962846       37.449727       33.201205
 Pd       34.344237       36.651696       35.510114
 Pd       32.962846       37.449727       37.819991
 Pd       34.344237       36.651696       40.128904
 Pd       32.962846       37.449727       42.437812
 Pd       34.344237       36.651696       44.747690
 Pd       32.962846       37.449727       47.056598
 Pd       31.580489       39.843821       28.583384
 Pd       32.962846       39.045791       30.892297
 Pd       31.580489       39.843821       33.201205
 Pd       32.962846       39.045791       35.510114
 Pd       31.580489       39.843821       37.819991
 Pd       32.962846       39.045791       40.128904
 Pd       31.580489       39.843821       42.437812
 Pd       32.962846       39.045791       44.747690
 Pd       31.580489       39.843821       47.056598
 Pd       31.580489       41.438923       30.892297
 Pd       30.199095       42.236953       33.201205
 Pd       31.580489       41.438923       35.510114
 Pd       30.199095       42.236953       37.819991
 Pd       31.580489       41.438923       40.128904
 Pd       30.199095       42.236953       42.437812
 Pd       31.580489       41.438923       44.747690
 Pd       30.199095       43.833017       35.510114
 Pd       28.816738       44.630086       37.819991
 Pd       30.199095       43.833017       40.128904
 Pd       41.254095       27.876236       33.201205
 Pd       41.254095       27.876236       37.819991
 Pd       41.254095       27.876236       42.437812
 Pd       41.254095       29.471336       30.892297
 Pd       39.871738       30.269368       33.201205
 Pd       41.254095       29.471336       35.510114
 Pd       39.871738       30.269368       37.819991
 Pd       41.254095       29.471336       40.128904
 Pd       39.871738       30.269368       42.437812
 Pd       41.254095       29.471336       44.747690
 Pd       38.490346       32.663463       28.583384
 Pd       39.871738       31.865432       30.892297
 Pd       38.490346       32.663463       33.201205
 Pd       39.871738       31.865432       35.510114
 Pd       38.490346       32.663463       37.819991
 Pd       39.871738       31.865432       40.128904
 Pd       38.490346       32.663463       42.437812
 Pd       39.871738       31.865432       44.747690
 Pd       38.490346       32.663463       47.056598
 Pd       37.107989       35.056595       28.583384
 Pd       38.490346       34.258564       30.892297
 Pd       37.107989       35.056595       33.201205
 Pd       38.490346       34.258564       35.510114
 Pd       37.107989       35.056595       37.819991
 Pd       38.490346       34.258564       40.128904
 Pd       37.107989       35.056595       42.437812
 Pd       38.490346       34.258564       44.747690
 Pd       37.107989       35.056595       47.056598
 Pd       35.726594       37.449727       28.583384
 Pd       37.107989       36.651696       30.892297
 Pd       35.726594       37.449727       33.201205
 Pd       37.107989       36.651696       35.510114
 Pd       35.726594       37.449727       37.819991
 Pd       37.107989       36.651696       40.128904
 Pd       35.726594       37.449727       42.437812
 Pd       37.107989       36.651696       44.747690
 Pd       35.726594       37.449727       47.056598
 Pd       34.344237       39.843821       28.583384
 Pd       35.726594       39.045791       30.892297
 Pd       34.344237       39.843821       33.201205
 Pd       35.726594       39.045791       35.510114
 Pd       34.344237       39.843821       37.819991
 Pd       35.726594       39.045791       40.128904
 Pd       34.344237       39.843821       42.437812
 Pd       35.726594       39.045791       44.747690
 Pd       34.344237       39.843821       47.056598
 Pd       34.344237       41.438923       30.892297
 Pd       32.962846       42.236953       33.201205
 Pd       34.344237       41.438923       35.510114
 Pd       32.962846       42.236953       37.819991
 Pd       34.344237       41.438923       40.128904
 Pd       32.962846       42.236953       42.437812
 Pd       34.344237       41.438923       44.747690
 Pd       32.962846       43.833017       30.892297
 Pd       31.580489       44.630086       33.201205
 Pd       32.962846       43.833017       35.510114
 Pd       31.580489       44.630086       37.819991
 Pd       32.962846       43.833017       40.128904
 Pd       31.580489       44.630086       42.437812
 Pd       32.962846       43.833017       44.747690
 Pd       42.635489       30.269368       33.201205
 Pd       44.017847       29.471336       35.510114
 Pd       42.635489       30.269368       37.819991
 Pd       44.017847       29.471336       40.128904
 Pd       42.635489       30.269368       42.437812
 Pd       42.635489       31.865432       30.892297
 Pd       41.254095       32.663463       33.201205
 Pd       42.635489       31.865432       35.510114
 Pd       41.254095       32.663463       37.819991
 Pd       42.635489       31.865432       40.128904
 Pd       41.254095       32.663463       42.437812
 Pd       42.635489       31.865432       44.747690
 Pd       39.871738       35.056595       28.583384
 Pd       41.254095       34.258564       30.892297
 Pd       39.871738       35.056595       33.201205
 Pd       41.254095       34.258564       35.510114
 Pd       39.871738       35.056595       37.819991
 Pd       41.254095       34.258564       40.128904
 Pd       39.871738       35.056595       42.437812
 Pd       41.254095       34.258564       44.747690
 Pd       39.871738       35.056595       47.056598
 Pd       38.490346       37.449727       28.583384
 Pd       39.871738       36.651696       30.892297
 Pd       38.490346       37.449727       33.201205
 Pd       39.871738       36.651696       35.510114
 Pd       38.490346       37.449727       37.819991
 Pd       39.871738       36.651696       40.128904
 Pd       38.490346       37.449727       42.437812
 Pd       39.871738       36.651696       44.747690
 Pd       38.490346       37.449727       47.056598
 Pd       37.107989       39.843821       28.583384
 Pd       38.489384       39.045791       30.892297
 Pd       37.107989       39.843821       33.201205
 Pd       38.489384       39.045791       35.510114
 Pd       37.107989       39.843821       37.819991
 Pd       38.489384       39.045791       40.128904
 Pd       37.107989       39.843821       42.437812
 Pd       38.489384       39.045791       44.747690
 Pd       37.107989       39.843821       47.056598
 Pd       37.107989       41.438923       30.892297
 Pd       35.726594       42.236953       33.201205
 Pd       37.107989       41.438923       35.510114
 Pd       35.726594       42.236953       37.819991
 Pd       37.107989       41.438923       40.128904
 Pd       35.726594       42.236953       42.437812
 Pd       37.107989       41.438923       44.747690
 Pd       35.726594       43.833017       30.892297
 Pd       34.344237       44.630086       33.201205
 Pd       35.726594       43.833017       35.510114
 Pd       34.344237       44.630086       37.819991
 Pd       35.726594       43.833017       40.128904
 Pd       34.344237       44.630086       42.437812
 Pd       35.726594       43.833017       44.747690
 Pd       34.344237       46.226149       35.510114
 Pd       34.344237       46.226149       40.128904
 Pd       44.017847       32.663463       33.201205
 Pd       44.017847       32.663463       37.819991
 Pd       44.017847       32.663463       42.437812
 Pd       42.635489       35.056595       33.201205
 Pd       44.017847       34.258564       35.510114
 Pd       42.635489       35.056595       37.819991
 Pd       44.017847       34.258564       40.128904
 Pd       42.635489       35.056595       42.437812
 Pd       42.635489       36.651696       30.892297
 Pd       41.254095       37.449727       33.201205
 Pd       42.635489       36.651696       35.510114
 Pd       41.254095       37.449727       37.819991
 Pd       42.635489       36.651696       40.128904
 Pd       41.254095       37.449727       42.437812
 Pd       42.635489       36.651696       44.747690
 Pd       41.254095       39.045791       30.892297
 Pd       39.871738       39.843821       33.201205
 Pd       41.254095       39.045791       35.510114
 Pd       39.871738       39.843821       37.819991
 Pd       41.254095       39.045791       40.128904
 Pd       39.871738       39.843821       42.437812
 Pd       41.254095       39.045791       44.747690
 Pd       39.871738       41.438923       30.892297
 Pd       38.490346       42.236953       33.201205
 Pd       39.871738       41.438923       35.510114
 Pd       38.490346       42.236953       37.819991
 Pd       39.871738       41.438923       40.128904
 Pd       38.490346       42.236953       42.437812
 Pd       39.871738       41.438923       44.747690
 Pd       37.107989       44.630086       33.201205
 Pd       38.490346       43.833017       35.510114
 Pd       37.107989       44.630086       37.819991
 Pd       38.490346       43.833017       40.128904
 Pd       37.107989       44.630086       42.437812
 Pd       45.399238       35.056595       37.819991
 Pd       44.017847       37.449727       33.201205
 Pd       45.399238       36.651696       35.510114
 Pd       44.017847       37.449727       37.819991
 Pd       45.399238       36.651696       40.128904
 Pd       44.017847       37.449727       42.437812
 Pd       42.635489       39.843821       33.201205
 Pd       44.017847       39.045791       35.510114
 Pd       42.635489       39.843821       37.819991
 Pd       44.017847       39.045791       40.128904
 Pd       42.635489       39.843821       42.437812
 Pd       41.254095       42.236953       33.201205
 Pd       42.635489       41.438923       35.510114
 Pd       41.254095       42.236953       37.819991
 Pd       42.635489       41.438923       40.128904
 Pd       41.254095       42.236953       42.437812
 Pd       41.254095       43.833017       35.510114
 Pd       39.871738       44.630086       37.819991
 Pd       41.254095       43.833017       40.128904
