57
generated from rescale_cell.py
 Pd       36.188729       34.701710       40.610270
 Pd       34.788490       37.125798       40.610270
 Pd       33.389231       39.550861       40.610270
 Pd       37.587992       35.510063       38.273661
 Pd       38.988231       34.701710       40.610270
 Pd       37.587992       35.510063       42.946875
 Pd       37.587992       37.125798       35.936075
 Pd       36.188729       37.934151       38.273661
 Pd       37.587992       37.125798       40.610270
 Pd       36.188729       37.934151       42.946875
 Pd       37.587992       37.125798       45.284461
 Pd       36.188729       39.550861       35.936075
 Pd       34.788490       40.359214       38.273661
 Pd       36.188729       39.550861       40.610270
 Pd       34.788490       40.359214       42.946875
 Pd       36.188729       39.550861       45.284461
 Pd       34.788490       41.974949       40.610270
 Pd       40.387491       35.510063       38.273661
 Pd       41.787730       34.701710       40.610270
 Pd       40.387491       35.510063       42.946875
 Pd       40.387491       37.125798       35.936075
 Pd       38.988231       37.934151       38.273661
 Pd       40.387491       37.125798       40.610270
 Pd       38.988231       37.934151       42.946875
 Pd       40.387491       37.125798       45.284461
 Pd       38.987257       39.550861       35.936075
 Pd       37.587992       40.359214       38.273661
 Pd       38.987257       39.550861       40.610270
 Pd       37.587992       40.359214       42.946875
 Pd       38.987257       39.550861       45.284461
 Pd       37.587992       41.974949       35.936075
 Pd       36.188729       42.783302       38.273661
 Pd       37.587992       41.974949       40.610270
 Pd       36.188729       42.783302       42.946875
 Pd       37.587992       41.974949       45.284461
 Pd       36.188729       44.400011       40.610270
 Pd       41.787730       37.934151       38.273661
 Pd       43.186993       37.125798       40.610270
 Pd       41.787730       37.934151       42.946875
 Pd       41.787730       39.550861       35.936075
 Pd       40.387491       40.359214       38.273661
 Pd       41.787730       39.550861       40.610270
 Pd       40.387491       40.359214       42.946875
 Pd       41.787730       39.550861       45.284461
 Pd       40.387491       41.974949       35.936075
 Pd       38.988231       42.783302       38.273661
 Pd       40.387491       41.974949       40.610270
 Pd       38.988231       42.783302       42.946875
 Pd       40.387491       41.974949       45.284461
 Pd       38.988231       44.400011       40.610270
 Pd       43.186993       40.359214       38.273661
 Pd       44.587232       39.550861       40.610270
 Pd       43.186993       40.359214       42.946875
 Pd       41.787730       42.783302       38.273661
 Pd       43.186993       41.974949       40.610270
 Pd       41.787730       42.783302       42.946875
 Pd       41.787730       44.400011       40.610270
