57
generated from rescale_cell.py
 Pd       36.650864       35.144855       41.091636
 Pd       35.232744       37.599899       41.091636
 Pd       33.815616       40.055931       41.091636
 Pd       38.067996       35.963532       38.727330
 Pd       39.486116       35.144855       41.091636
 Pd       38.067996       35.963532       43.455937
 Pd       38.067996       37.599899       36.362037
 Pd       36.650864       38.418576       38.727330
 Pd       38.067996       37.599899       41.091636
 Pd       36.650864       38.418576       43.455937
 Pd       38.067996       37.599899       45.821231
 Pd       36.650864       40.055931       36.362037
 Pd       35.232744       40.874606       38.727330
 Pd       36.650864       40.055931       41.091636
 Pd       35.232744       40.874606       43.455937
 Pd       36.650864       40.055931       45.821231
 Pd       35.232744       42.510975       41.091636
 Pd       40.903245       35.963532       38.727330
 Pd       42.321365       35.144855       41.091636
 Pd       40.903245       35.963532       43.455937
 Pd       40.903245       37.599899       36.362037
 Pd       39.486116       38.418576       38.727330
 Pd       40.903245       37.599899       41.091636
 Pd       39.486116       38.418576       43.455937
 Pd       40.903245       37.599899       45.821231
 Pd       39.485129       40.055931       36.362037
 Pd       38.067996       40.874606       38.727330
 Pd       39.485129       40.055931       41.091636
 Pd       38.067996       40.874606       43.455937
 Pd       39.485129       40.055931       45.821231
 Pd       38.067996       42.510975       36.362037
 Pd       36.650864       43.329650       38.727330
 Pd       38.067996       42.510975       41.091636
 Pd       36.650864       43.329650       43.455937
 Pd       38.067996       42.510975       45.821231
 Pd       36.650864       44.967006       41.091636
 Pd       42.321365       38.418576       38.727330
 Pd       43.738497       37.599899       41.091636
 Pd       42.321365       38.418576       43.455937
 Pd       42.321365       40.055931       36.362037
 Pd       40.903245       40.874606       38.727330
 Pd       42.321365       40.055931       41.091636
 Pd       40.903245       40.874606       43.455937
 Pd       42.321365       40.055931       45.821231
 Pd       40.903245       42.510975       36.362037
 Pd       39.486116       43.329650       38.727330
 Pd       40.903245       42.510975       41.091636
 Pd       39.486116       43.329650       43.455937
 Pd       40.903245       42.510975       45.821231
 Pd       39.486116       44.967006       41.091636
 Pd       43.738497       40.874606       38.727330
 Pd       45.156617       40.055931       41.091636
 Pd       43.738497       40.874606       43.455937
 Pd       42.321365       43.329650       38.727330
 Pd       43.738497       42.510975       41.091636
 Pd       42.321365       43.329650       43.455937
 Pd       42.321365       44.967006       41.091636
