419
generated from rescale_cell.py
 Pd       25.118384       30.005046       36.106460
 Pd       25.118384       30.005046       40.802816
 Pd       30.745984       25.132105       36.106460
 Pd       29.338593       25.943609       38.455129
 Pd       30.745984       25.132105       40.802816
 Pd       27.932184       28.381059       33.758776
 Pd       29.338593       27.568575       36.106460
 Pd       27.932184       28.381059       38.455129
 Pd       29.338593       27.568575       40.802816
 Pd       27.932184       28.381059       43.150500
 Pd       27.932184       30.005046       31.411093
 Pd       26.524793       30.817530       33.758776
 Pd       27.932184       30.005046       36.106460
 Pd       26.524793       30.817530       38.455129
 Pd       27.932184       30.005046       40.802816
 Pd       26.524793       30.817530       43.150500
 Pd       27.932184       30.005046       45.499169
 Pd       26.524793       32.442498       31.411093
 Pd       25.118384       33.254980       33.758776
 Pd       26.524793       32.442498       36.106460
 Pd       25.118384       33.254980       38.455129
 Pd       26.524793       32.442498       40.802816
 Pd       25.118384       33.254980       43.150500
 Pd       26.524793       32.442498       45.499169
 Pd       25.118384       34.878968       36.106460
 Pd       23.710995       35.691451       38.455129
 Pd       25.118384       34.878968       40.802816
 Pd       23.710995       37.315439       36.106460
 Pd       23.710995       37.315439       40.802816
 Pd       32.152394       25.943609       33.758776
 Pd       33.559785       25.132105       36.106460
 Pd       32.152394       25.943609       38.455129
 Pd       33.559785       25.132105       40.802816
 Pd       32.152394       25.943609       43.150500
 Pd       32.152394       27.568575       31.411093
 Pd       30.745984       28.381059       33.758776
 Pd       32.152394       27.568575       36.106460
 Pd       30.745984       28.381059       38.455129
 Pd       32.152394       27.568575       40.802816
 Pd       30.745984       28.381059       43.150500
 Pd       32.152394       27.568575       45.499169
 Pd       30.745984       30.005046       31.411093
 Pd       29.338593       30.817530       33.758776
 Pd       30.745984       30.005046       36.106460
 Pd       29.338593       30.817530       38.455129
 Pd       30.745984       30.005046       40.802816
 Pd       29.338593       30.817530       43.150500
 Pd       30.745984       30.005046       45.499169
 Pd       29.338593       32.442498       31.411093
 Pd       27.932184       33.254980       33.758776
 Pd       29.338593       32.442498       36.106460
 Pd       27.932184       33.254980       38.455129
 Pd       29.338593       32.442498       40.802816
 Pd       27.932184       33.254980       43.150500
 Pd       29.338593       32.442498       45.499169
 Pd       27.932184       34.878968       31.411093
 Pd       26.524793       35.691451       33.758776
 Pd       27.932184       34.878968       36.106460
 Pd       26.524793       35.691451       38.455129
 Pd       27.932184       34.878968       40.802816
 Pd       26.524793       35.691451       43.150500
 Pd       27.932184       34.878968       45.499169
 Pd       26.524793       37.315439       31.411093
 Pd       25.118384       38.127921       33.758776
 Pd       26.524793       37.315439       36.106460
 Pd       25.118384       38.127921       38.455129
 Pd       26.524793       37.315439       40.802816
 Pd       25.118384       38.127921       43.150500
 Pd       26.524793       37.315439       45.499169
 Pd       25.118384       39.752889       36.106460
 Pd       25.118384       39.752889       40.802816
 Pd       34.966192       25.943609       33.758776
 Pd       36.373583       25.132105       36.106460
 Pd       34.966192       25.943609       38.455129
 Pd       36.373583       25.132105       40.802816
 Pd       34.966192       25.943609       43.150500
 Pd       34.966192       27.568575       31.411093
 Pd       33.559785       28.381059       33.758776
 Pd       34.966192       27.568575       36.106460
 Pd       33.559785       28.381059       38.455129
 Pd       34.966192       27.568575       40.802816
 Pd       33.559785       28.381059       43.150500
 Pd       34.966192       27.568575       45.499169
 Pd       32.152394       30.817530       29.063405
 Pd       33.559785       30.005046       31.411093
 Pd       32.152394       30.817530       33.758776
 Pd       33.559785       30.005046       36.106460
 Pd       32.152394       30.817530       38.455129
 Pd       33.559785       30.005046       40.802816
 Pd       32.152394       30.817530       43.150500
 Pd       33.559785       30.005046       45.499169
 Pd       32.152394       30.817530       47.846852
 Pd       30.745984       33.254980       29.063405
 Pd       32.152394       32.442498       31.411093
 Pd       30.745984       33.254980       33.758776
 Pd       32.152394       32.442498       36.106460
 Pd       30.745984       33.254980       38.455129
 Pd       32.152394       32.442498       40.802816
 Pd       30.745984       33.254980       43.150500
 Pd       32.152394       32.442498       45.499169
 Pd       30.745984       33.254980       47.846852
 Pd       29.338593       35.691451       29.063405
 Pd       30.745984       34.878968       31.411093
 Pd       29.338593       35.691451       33.758776
 Pd       30.745984       34.878968       36.106460
 Pd       29.338593       35.691451       38.455129
 Pd       30.745984       34.878968       40.802816
 Pd       29.338593       35.691451       43.150500
 Pd       30.745984       34.878968       45.499169
 Pd       29.338593       35.691451       47.846852
 Pd       29.338593       37.315439       31.411093
 Pd       27.932184       38.127921       33.758776
 Pd       29.338593       37.315439       36.106460
 Pd       27.932184       38.127921       38.455129
 Pd       29.338593       37.315439       40.802816
 Pd       27.932184       38.127921       43.150500
 Pd       29.338593       37.315439       45.499169
 Pd       27.932184       39.752889       31.411093
 Pd       26.524793       40.565371       33.758776
 Pd       27.932184       39.752889       36.106460
 Pd       26.524793       40.565371       38.455129
 Pd       27.932184       39.752889       40.802816
 Pd       26.524793       40.565371       43.150500
 Pd       27.932184       39.752889       45.499169
 Pd       26.524793       42.189360       36.106460
 Pd       26.524793       42.189360       40.802816
 Pd       37.779994       25.943609       33.758776
 Pd       39.186406       25.132105       36.106460
 Pd       37.779994       25.943609       38.455129
 Pd       39.186406       25.132105       40.802816
 Pd       37.779994       25.943609       43.150500
 Pd       37.779994       27.568575       31.411093
 Pd       36.373583       28.381059       33.758776
 Pd       37.779994       27.568575       36.106460
 Pd       36.373583       28.381059       38.455129
 Pd       37.779994       27.568575       40.802816
 Pd       36.373583       28.381059       43.150500
 Pd       37.779994       27.568575       45.499169
 Pd       34.966192       30.817530       29.063405
 Pd       36.373583       30.005046       31.411093
 Pd       34.966192       30.817530       33.758776
 Pd       36.373583       30.005046       36.106460
 Pd       34.966192       30.817530       38.455129
 Pd       36.373583       30.005046       40.802816
 Pd       34.966192       30.817530       43.150500
 Pd       36.373583       30.005046       45.499169
 Pd       34.966192       30.817530       47.846852
 Pd       33.559785       33.254980       29.063405
 Pd       34.966192       32.442498       31.411093
 Pd       33.559785       33.254980       33.758776
 Pd       34.966192       32.442498       36.106460
 Pd       33.559785       33.254980       38.455129
 Pd       34.966192       32.442498       40.802816
 Pd       33.559785       33.254980       43.150500
 Pd       34.966192       32.442498       45.499169
 Pd       33.559785       33.254980       47.846852
 Pd       32.152394       35.691451       29.063405
 Pd       33.559785       34.878968       31.411093
 Pd       32.152394       35.691451       33.758776
 Pd       33.559785       34.878968       36.106460
 Pd       32.152394       35.691451       38.455129
 Pd       33.559785       34.878968       40.802816
 Pd       32.152394       35.691451       43.150500
 Pd       33.559785       34.878968       45.499169
 Pd       32.152394       35.691451       47.846852
 Pd       30.745984       38.127921       29.063405
 Pd       32.152394       37.315439       31.411093
 Pd       30.745984       38.127921       33.758776
 Pd       32.152394       37.315439       36.106460
 Pd       30.745984       38.127921       38.455129
 Pd       32.152394       37.315439       40.802816
 Pd       30.745984       38.127921       43.150500
 Pd       32.152394       37.315439       45.499169
 Pd       30.745984       38.127921       47.846852
 Pd       30.745984       39.752889       31.411093
 Pd       29.338593       40.565371       33.758776
 Pd       30.745984       39.752889       36.106460
 Pd       29.338593       40.565371       38.455129
 Pd       30.745984       39.752889       40.802816
 Pd       29.338593       40.565371       43.150500
 Pd       30.745984       39.752889       45.499169
 Pd       29.338593       42.189360       31.411093
 Pd       27.932184       43.001841       33.758776
 Pd       29.338593       42.189360       36.106460
 Pd       27.932184       43.001841       38.455129
 Pd       29.338593       42.189360       40.802816
 Pd       27.932184       43.001841       43.150500
 Pd       29.338593       42.189360       45.499169
 Pd       27.932184       44.626809       36.106460
 Pd       27.932184       44.626809       40.802816
 Pd       40.593793       25.943609       38.455129
 Pd       39.187385       28.381059       33.758776
 Pd       40.593793       27.568575       36.106460
 Pd       39.187385       28.381059       38.455129
 Pd       40.593793       27.568575       40.802816
 Pd       39.187385       28.381059       43.150500
 Pd       37.779994       30.817530       29.063405
 Pd       39.187385       30.005046       31.411093
 Pd       37.779994       30.817530       33.758776
 Pd       39.187385       30.005046       36.106460
 Pd       37.779994       30.817530       38.455129
 Pd       39.187385       30.005046       40.802816
 Pd       37.779994       30.817530       43.150500
 Pd       39.187385       30.005046       45.499169
 Pd       37.779994       30.817530       47.846852
 Pd       36.373583       33.254980       29.063405
 Pd       37.779994       32.442498       31.411093
 Pd       36.373583       33.254980       33.758776
 Pd       37.779994       32.442498       36.106460
 Pd       36.373583       33.254980       38.455129
 Pd       37.779994       32.442498       40.802816
 Pd       36.373583       33.254980       43.150500
 Pd       37.779994       32.442498       45.499169
 Pd       36.373583       33.254980       47.846852
 Pd       34.966192       35.691451       29.063405
 Pd       36.373583       34.878968       31.411093
 Pd       34.966192       35.691451       33.758776
 Pd       36.373583       34.878968       36.106460
 Pd       34.966192       35.691451       38.455129
 Pd       36.373583       34.878968       40.802816
 Pd       34.966192       35.691451       43.150500
 Pd       36.373583       34.878968       45.499169
 Pd       34.966192       35.691451       47.846852
 Pd       33.559785       38.127921       29.063405
 Pd       34.966192       37.315439       31.411093
 Pd       33.559785       38.127921       33.758776
 Pd       34.966192       37.315439       36.106460
 Pd       33.559785       38.127921       38.455129
 Pd       34.966192       37.315439       40.802816
 Pd       33.559785       38.127921       43.150500
 Pd       34.966192       37.315439       45.499169
 Pd       33.559785       38.127921       47.846852
 Pd       32.152394       40.565371       29.063405
 Pd       33.559785       39.752889       31.411093
 Pd       32.152394       40.565371       33.758776
 Pd       33.559785       39.752889       36.106460
 Pd       32.152394       40.565371       38.455129
 Pd       33.559785       39.752889       40.802816
 Pd       32.152394       40.565371       43.150500
 Pd       33.559785       39.752889       45.499169
 Pd       32.152394       40.565371       47.846852
 Pd       32.152394       42.189360       31.411093
 Pd       30.745984       43.001841       33.758776
 Pd       32.152394       42.189360       36.106460
 Pd       30.745984       43.001841       38.455129
 Pd       32.152394       42.189360       40.802816
 Pd       30.745984       43.001841       43.150500
 Pd       32.152394       42.189360       45.499169
 Pd       30.745984       44.626809       36.106460
 Pd       29.338593       45.438313       38.455129
 Pd       30.745984       44.626809       40.802816
 Pd       42.001184       28.381059       33.758776
 Pd       42.001184       28.381059       38.455129
 Pd       42.001184       28.381059       43.150500
 Pd       42.001184       30.005046       31.411093
 Pd       40.593793       30.817530       33.758776
 Pd       42.001184       30.005046       36.106460
 Pd       40.593793       30.817530       38.455129
 Pd       42.001184       30.005046       40.802816
 Pd       40.593793       30.817530       43.150500
 Pd       42.001184       30.005046       45.499169
 Pd       39.187385       33.254980       29.063405
 Pd       40.593793       32.442498       31.411093
 Pd       39.187385       33.254980       33.758776
 Pd       40.593793       32.442498       36.106460
 Pd       39.187385       33.254980       38.455129
 Pd       40.593793       32.442498       40.802816
 Pd       39.187385       33.254980       43.150500
 Pd       40.593793       32.442498       45.499169
 Pd       39.187385       33.254980       47.846852
 Pd       37.779994       35.691451       29.063405
 Pd       39.187385       34.878968       31.411093
 Pd       37.779994       35.691451       33.758776
 Pd       39.187385       34.878968       36.106460
 Pd       37.779994       35.691451       38.455129
 Pd       39.187385       34.878968       40.802816
 Pd       37.779994       35.691451       43.150500
 Pd       39.187385       34.878968       45.499169
 Pd       37.779994       35.691451       47.846852
 Pd       36.373583       38.127921       29.063405
 Pd       37.779994       37.315439       31.411093
 Pd       36.373583       38.127921       33.758776
 Pd       37.779994       37.315439       36.106460
 Pd       36.373583       38.127921       38.455129
 Pd       37.779994       37.315439       40.802816
 Pd       36.373583       38.127921       43.150500
 Pd       37.779994       37.315439       45.499169
 Pd       36.373583       38.127921       47.846852
 Pd       34.966192       40.565371       29.063405
 Pd       36.373583       39.752889       31.411093
 Pd       34.966192       40.565371       33.758776
 Pd       36.373583       39.752889       36.106460
 Pd       34.966192       40.565371       38.455129
 Pd       36.373583       39.752889       40.802816
 Pd       34.966192       40.565371       43.150500
 Pd       36.373583       39.752889       45.499169
 Pd       34.966192       40.565371       47.846852
 Pd       34.966192       42.189360       31.411093
 Pd       33.559785       43.001841       33.758776
 Pd       34.966192       42.189360       36.106460
 Pd       33.559785       43.001841       38.455129
 Pd       34.966192       42.189360       40.802816
 Pd       33.559785       43.001841       43.150500
 Pd       34.966192       42.189360       45.499169
 Pd       33.559785       44.626809       31.411093
 Pd       32.152394       45.438313       33.758776
 Pd       33.559785       44.626809       36.106460
 Pd       32.152394       45.438313       38.455129
 Pd       33.559785       44.626809       40.802816
 Pd       32.152394       45.438313       43.150500
 Pd       33.559785       44.626809       45.499169
 Pd       43.407595       30.817530       33.758776
 Pd       44.814986       30.005046       36.106460
 Pd       43.407595       30.817530       38.455129
 Pd       44.814986       30.005046       40.802816
 Pd       43.407595       30.817530       43.150500
 Pd       43.407595       32.442498       31.411093
 Pd       42.001184       33.254980       33.758776
 Pd       43.407595       32.442498       36.106460
 Pd       42.001184       33.254980       38.455129
 Pd       43.407595       32.442498       40.802816
 Pd       42.001184       33.254980       43.150500
 Pd       43.407595       32.442498       45.499169
 Pd       40.593793       35.691451       29.063405
 Pd       42.001184       34.878968       31.411093
 Pd       40.593793       35.691451       33.758776
 Pd       42.001184       34.878968       36.106460
 Pd       40.593793       35.691451       38.455129
 Pd       42.001184       34.878968       40.802816
 Pd       40.593793       35.691451       43.150500
 Pd       42.001184       34.878968       45.499169
 Pd       40.593793       35.691451       47.846852
 Pd       39.187385       38.127921       29.063405
 Pd       40.593793       37.315439       31.411093
 Pd       39.187385       38.127921       33.758776
 Pd       40.593793       37.315439       36.106460
 Pd       39.187385       38.127921       38.455129
 Pd       40.593793       37.315439       40.802816
 Pd       39.187385       38.127921       43.150500
 Pd       40.593793       37.315439       45.499169
 Pd       39.187385       38.127921       47.846852
 Pd       37.779994       40.565371       29.063405
 Pd       39.186406       39.752889       31.411093
 Pd       37.779994       40.565371       33.758776
 Pd       39.186406       39.752889       36.106460
 Pd       37.779994       40.565371       38.455129
 Pd       39.186406       39.752889       40.802816
 Pd       37.779994       40.565371       43.150500
 Pd       39.186406       39.752889       45.499169
 Pd       37.779994       40.565371       47.846852
 Pd       37.779994       42.189360       31.411093
 Pd       36.373583       43.001841       33.758776
 Pd       37.779994       42.189360       36.106460
 Pd       36.373583       43.001841       38.455129
 Pd       37.779994       42.189360       40.802816
 Pd       36.373583       43.001841       43.150500
 Pd       37.779994       42.189360       45.499169
 Pd       36.373583       44.626809       31.411093
 Pd       34.966192       45.438313       33.758776
 Pd       36.373583       44.626809       36.106460
 Pd       34.966192       45.438313       38.455129
 Pd       36.373583       44.626809       40.802816
 Pd       34.966192       45.438313       43.150500
 Pd       36.373583       44.626809       45.499169
 Pd       34.966192       47.063280       36.106460
 Pd       34.966192       47.063280       40.802816
 Pd       44.814986       33.254980       33.758776
 Pd       44.814986       33.254980       38.455129
 Pd       44.814986       33.254980       43.150500
 Pd       43.407595       35.691451       33.758776
 Pd       44.814986       34.878968       36.106460
 Pd       43.407595       35.691451       38.455129
 Pd       44.814986       34.878968       40.802816
 Pd       43.407595       35.691451       43.150500
 Pd       43.407595       37.315439       31.411093
 Pd       42.001184       38.127921       33.758776
 Pd       43.407595       37.315439       36.106460
 Pd       42.001184       38.127921       38.455129
 Pd       43.407595       37.315439       40.802816
 Pd       42.001184       38.127921       43.150500
 Pd       43.407595       37.315439       45.499169
 Pd       42.001184       39.752889       31.411093
 Pd       40.593793       40.565371       33.758776
 Pd       42.001184       39.752889       36.106460
 Pd       40.593793       40.565371       38.455129
 Pd       42.001184       39.752889       40.802816
 Pd       40.593793       40.565371       43.150500
 Pd       42.001184       39.752889       45.499169
 Pd       40.593793       42.189360       31.411093
 Pd       39.187385       43.001841       33.758776
 Pd       40.593793       42.189360       36.106460
 Pd       39.187385       43.001841       38.455129
 Pd       40.593793       42.189360       40.802816
 Pd       39.187385       43.001841       43.150500
 Pd       40.593793       42.189360       45.499169
 Pd       37.779994       45.438313       33.758776
 Pd       39.187385       44.626809       36.106460
 Pd       37.779994       45.438313       38.455129
 Pd       39.187385       44.626809       40.802816
 Pd       37.779994       45.438313       43.150500
 Pd       46.221393       35.691451       38.455129
 Pd       44.814986       38.127921       33.758776
 Pd       46.221393       37.315439       36.106460
 Pd       44.814986       38.127921       38.455129
 Pd       46.221393       37.315439       40.802816
 Pd       44.814986       38.127921       43.150500
 Pd       43.407595       40.565371       33.758776
 Pd       44.814986       39.752889       36.106460
 Pd       43.407595       40.565371       38.455129
 Pd       44.814986       39.752889       40.802816
 Pd       43.407595       40.565371       43.150500
 Pd       42.001184       43.001841       33.758776
 Pd       43.407595       42.189360       36.106460
 Pd       42.001184       43.001841       38.455129
 Pd       43.407595       42.189360       40.802816
 Pd       42.001184       43.001841       43.150500
 Pd       42.001184       44.626809       36.106460
 Pd       40.593793       45.438313       38.455129
 Pd       42.001184       44.626809       40.802816
