57
generated from rescale_cell.py
 Pd       36.373583       34.878968       40.802816
 Pd       34.966192       37.315439       40.802816
 Pd       33.559785       39.752889       40.802816
 Pd       37.779994       35.691451       38.455129
 Pd       39.187385       34.878968       40.802816
 Pd       37.779994       35.691451       43.150500
 Pd       37.779994       37.315439       36.106460
 Pd       36.373583       38.127921       38.455129
 Pd       37.779994       37.315439       40.802816
 Pd       36.373583       38.127921       43.150500
 Pd       37.779994       37.315439       45.499169
 Pd       36.373583       39.752889       36.106460
 Pd       34.966192       40.565371       38.455129
 Pd       36.373583       39.752889       40.802816
 Pd       34.966192       40.565371       43.150500
 Pd       36.373583       39.752889       45.499169
 Pd       34.966192       42.189360       40.802816
 Pd       40.593793       35.691451       38.455129
 Pd       42.001184       34.878968       40.802816
 Pd       40.593793       35.691451       43.150500
 Pd       40.593793       37.315439       36.106460
 Pd       39.187385       38.127921       38.455129
 Pd       40.593793       37.315439       40.802816
 Pd       39.187385       38.127921       43.150500
 Pd       40.593793       37.315439       45.499169
 Pd       39.186406       39.752889       36.106460
 Pd       37.779994       40.565371       38.455129
 Pd       39.186406       39.752889       40.802816
 Pd       37.779994       40.565371       43.150500
 Pd       39.186406       39.752889       45.499169
 Pd       37.779994       42.189360       36.106460
 Pd       36.373583       43.001841       38.455129
 Pd       37.779994       42.189360       40.802816
 Pd       36.373583       43.001841       43.150500
 Pd       37.779994       42.189360       45.499169
 Pd       36.373583       44.626809       40.802816
 Pd       42.001184       38.127921       38.455129
 Pd       43.407595       37.315439       40.802816
 Pd       42.001184       38.127921       43.150500
 Pd       42.001184       39.752889       36.106460
 Pd       40.593793       40.565371       38.455129
 Pd       42.001184       39.752889       40.802816
 Pd       40.593793       40.565371       43.150500
 Pd       42.001184       39.752889       45.499169
 Pd       40.593793       42.189360       36.106460
 Pd       39.187385       43.001841       38.455129
 Pd       40.593793       42.189360       40.802816
 Pd       39.187385       43.001841       43.150500
 Pd       40.593793       42.189360       45.499169
 Pd       39.187385       44.626809       40.802816
 Pd       43.407595       40.565371       38.455129
 Pd       44.814986       39.752889       40.802816
 Pd       43.407595       40.565371       43.150500
 Pd       42.001184       43.001841       38.455129
 Pd       43.407595       42.189360       40.802816
 Pd       42.001184       43.001841       43.150500
 Pd       42.001184       44.626809       40.802816
