419
generated from rescale_cell.py
 Pd       25.309865       30.233779       36.362037
 Pd       25.309865       30.233779       41.091636
 Pd       30.980365       25.323691       36.362037
 Pd       29.562245       26.141381       38.727330
 Pd       30.980365       25.323691       41.091636
 Pd       28.145115       28.597412       33.997735
 Pd       29.562245       27.778735       36.362037
 Pd       28.145115       28.597412       38.727330
 Pd       29.562245       27.778735       41.091636
 Pd       28.145115       28.597412       43.455937
 Pd       28.145115       30.233779       31.633434
 Pd       26.726995       31.052456       33.997735
 Pd       28.145115       30.233779       36.362037
 Pd       26.726995       31.052456       38.727330
 Pd       28.145115       30.233779       41.091636
 Pd       26.726995       31.052456       43.455937
 Pd       28.145115       30.233779       45.821231
 Pd       26.726995       32.689811       31.633434
 Pd       25.309865       33.508488       33.997735
 Pd       26.726995       32.689811       36.362037
 Pd       25.309865       33.508488       38.727330
 Pd       26.726995       32.689811       41.091636
 Pd       25.309865       33.508488       43.455937
 Pd       26.726995       32.689811       45.821231
 Pd       25.309865       35.144855       36.362037
 Pd       23.891747       35.963532       38.727330
 Pd       25.309865       35.144855       41.091636
 Pd       23.891747       37.599899       36.362037
 Pd       23.891747       37.599899       41.091636
 Pd       32.397496       26.141381       33.997735
 Pd       33.815616       25.323691       36.362037
 Pd       32.397496       26.141381       38.727330
 Pd       33.815616       25.323691       41.091636
 Pd       32.397496       26.141381       43.455937
 Pd       32.397496       27.778735       31.633434
 Pd       30.980365       28.597412       33.997735
 Pd       32.397496       27.778735       36.362037
 Pd       30.980365       28.597412       38.727330
 Pd       32.397496       27.778735       41.091636
 Pd       30.980365       28.597412       43.455937
 Pd       32.397496       27.778735       45.821231
 Pd       30.980365       30.233779       31.633434
 Pd       29.562245       31.052456       33.997735
 Pd       30.980365       30.233779       36.362037
 Pd       29.562245       31.052456       38.727330
 Pd       30.980365       30.233779       41.091636
 Pd       29.562245       31.052456       43.455937
 Pd       30.980365       30.233779       45.821231
 Pd       29.562245       32.689811       31.633434
 Pd       28.145115       33.508488       33.997735
 Pd       29.562245       32.689811       36.362037
 Pd       28.145115       33.508488       38.727330
 Pd       29.562245       32.689811       41.091636
 Pd       28.145115       33.508488       43.455937
 Pd       29.562245       32.689811       45.821231
 Pd       28.145115       35.144855       31.633434
 Pd       26.726995       35.963532       33.997735
 Pd       28.145115       35.144855       36.362037
 Pd       26.726995       35.963532       38.727330
 Pd       28.145115       35.144855       41.091636
 Pd       26.726995       35.963532       43.455937
 Pd       28.145115       35.144855       45.821231
 Pd       26.726995       37.599899       31.633434
 Pd       25.309865       38.418576       33.997735
 Pd       26.726995       37.599899       36.362037
 Pd       25.309865       38.418576       38.727330
 Pd       26.726995       37.599899       41.091636
 Pd       25.309865       38.418576       43.455937
 Pd       26.726995       37.599899       45.821231
 Pd       25.309865       40.055931       36.362037
 Pd       25.309865       40.055931       41.091636
 Pd       35.232744       26.141381       33.997735
 Pd       36.650864       25.323691       36.362037
 Pd       35.232744       26.141381       38.727330
 Pd       36.650864       25.323691       41.091636
 Pd       35.232744       26.141381       43.455937
 Pd       35.232744       27.778735       31.633434
 Pd       33.815616       28.597412       33.997735
 Pd       35.232744       27.778735       36.362037
 Pd       33.815616       28.597412       38.727330
 Pd       35.232744       27.778735       41.091636
 Pd       33.815616       28.597412       43.455937
 Pd       35.232744       27.778735       45.821231
 Pd       32.397496       31.052456       29.269128
 Pd       33.815616       30.233779       31.633434
 Pd       32.397496       31.052456       33.997735
 Pd       33.815616       30.233779       36.362037
 Pd       32.397496       31.052456       38.727330
 Pd       33.815616       30.233779       41.091636
 Pd       32.397496       31.052456       43.455937
 Pd       33.815616       30.233779       45.821231
 Pd       32.397496       31.052456       48.185533
 Pd       30.980365       33.508488       29.269128
 Pd       32.397496       32.689811       31.633434
 Pd       30.980365       33.508488       33.997735
 Pd       32.397496       32.689811       36.362037
 Pd       30.980365       33.508488       38.727330
 Pd       32.397496       32.689811       41.091636
 Pd       30.980365       33.508488       43.455937
 Pd       32.397496       32.689811       45.821231
 Pd       30.980365       33.508488       48.185533
 Pd       29.562245       35.963532       29.269128
 Pd       30.980365       35.144855       31.633434
 Pd       29.562245       35.963532       33.997735
 Pd       30.980365       35.144855       36.362037
 Pd       29.562245       35.963532       38.727330
 Pd       30.980365       35.144855       41.091636
 Pd       29.562245       35.963532       43.455937
 Pd       30.980365       35.144855       45.821231
 Pd       29.562245       35.963532       48.185533
 Pd       29.562245       37.599899       31.633434
 Pd       28.145115       38.418576       33.997735
 Pd       29.562245       37.599899       36.362037
 Pd       28.145115       38.418576       38.727330
 Pd       29.562245       37.599899       41.091636
 Pd       28.145115       38.418576       43.455937
 Pd       29.562245       37.599899       45.821231
 Pd       28.145115       40.055931       31.633434
 Pd       26.726995       40.874606       33.997735
 Pd       28.145115       40.055931       36.362037
 Pd       26.726995       40.874606       38.727330
 Pd       28.145115       40.055931       41.091636
 Pd       26.726995       40.874606       43.455937
 Pd       28.145115       40.055931       45.821231
 Pd       26.726995       42.510975       36.362037
 Pd       26.726995       42.510975       41.091636
 Pd       38.067996       26.141381       33.997735
 Pd       39.485129       25.323691       36.362037
 Pd       38.067996       26.141381       38.727330
 Pd       39.485129       25.323691       41.091636
 Pd       38.067996       26.141381       43.455937
 Pd       38.067996       27.778735       31.633434
 Pd       36.650864       28.597412       33.997735
 Pd       38.067996       27.778735       36.362037
 Pd       36.650864       28.597412       38.727330
 Pd       38.067996       27.778735       41.091636
 Pd       36.650864       28.597412       43.455937
 Pd       38.067996       27.778735       45.821231
 Pd       35.232744       31.052456       29.269128
 Pd       36.650864       30.233779       31.633434
 Pd       35.232744       31.052456       33.997735
 Pd       36.650864       30.233779       36.362037
 Pd       35.232744       31.052456       38.727330
 Pd       36.650864       30.233779       41.091636
 Pd       35.232744       31.052456       43.455937
 Pd       36.650864       30.233779       45.821231
 Pd       35.232744       31.052456       48.185533
 Pd       33.815616       33.508488       29.269128
 Pd       35.232744       32.689811       31.633434
 Pd       33.815616       33.508488       33.997735
 Pd       35.232744       32.689811       36.362037
 Pd       33.815616       33.508488       38.727330
 Pd       35.232744       32.689811       41.091636
 Pd       33.815616       33.508488       43.455937
 Pd       35.232744       32.689811       45.821231
 Pd       33.815616       33.508488       48.185533
 Pd       32.397496       35.963532       29.269128
 Pd       33.815616       35.144855       31.633434
 Pd       32.397496       35.963532       33.997735
 Pd       33.815616       35.144855       36.362037
 Pd       32.397496       35.963532       38.727330
 Pd       33.815616       35.144855       41.091636
 Pd       32.397496       35.963532       43.455937
 Pd       33.815616       35.144855       45.821231
 Pd       32.397496       35.963532       48.185533
 Pd       30.980365       38.418576       29.269128
 Pd       32.397496       37.599899       31.633434
 Pd       30.980365       38.418576       33.997735
 Pd       32.397496       37.599899       36.362037
 Pd       30.980365       38.418576       38.727330
 Pd       32.397496       37.599899       41.091636
 Pd       30.980365       38.418576       43.455937
 Pd       32.397496       37.599899       45.821231
 Pd       30.980365       38.418576       48.185533
 Pd       30.980365       40.055931       31.633434
 Pd       29.562245       40.874606       33.997735
 Pd       30.980365       40.055931       36.362037
 Pd       29.562245       40.874606       38.727330
 Pd       30.980365       40.055931       41.091636
 Pd       29.562245       40.874606       43.455937
 Pd       30.980365       40.055931       45.821231
 Pd       29.562245       42.510975       31.633434
 Pd       28.145115       43.329650       33.997735
 Pd       29.562245       42.510975       36.362037
 Pd       28.145115       43.329650       38.727330
 Pd       29.562245       42.510975       41.091636
 Pd       28.145115       43.329650       43.455937
 Pd       29.562245       42.510975       45.821231
 Pd       28.145115       44.967006       36.362037
 Pd       28.145115       44.967006       41.091636
 Pd       40.903245       26.141381       38.727330
 Pd       39.486116       28.597412       33.997735
 Pd       40.903245       27.778735       36.362037
 Pd       39.486116       28.597412       38.727330
 Pd       40.903245       27.778735       41.091636
 Pd       39.486116       28.597412       43.455937
 Pd       38.067996       31.052456       29.269128
 Pd       39.486116       30.233779       31.633434
 Pd       38.067996       31.052456       33.997735
 Pd       39.486116       30.233779       36.362037
 Pd       38.067996       31.052456       38.727330
 Pd       39.486116       30.233779       41.091636
 Pd       38.067996       31.052456       43.455937
 Pd       39.486116       30.233779       45.821231
 Pd       38.067996       31.052456       48.185533
 Pd       36.650864       33.508488       29.269128
 Pd       38.067996       32.689811       31.633434
 Pd       36.650864       33.508488       33.997735
 Pd       38.067996       32.689811       36.362037
 Pd       36.650864       33.508488       38.727330
 Pd       38.067996       32.689811       41.091636
 Pd       36.650864       33.508488       43.455937
 Pd       38.067996       32.689811       45.821231
 Pd       36.650864       33.508488       48.185533
 Pd       35.232744       35.963532       29.269128
 Pd       36.650864       35.144855       31.633434
 Pd       35.232744       35.963532       33.997735
 Pd       36.650864       35.144855       36.362037
 Pd       35.232744       35.963532       38.727330
 Pd       36.650864       35.144855       41.091636
 Pd       35.232744       35.963532       43.455937
 Pd       36.650864       35.144855       45.821231
 Pd       35.232744       35.963532       48.185533
 Pd       33.815616       38.418576       29.269128
 Pd       35.232744       37.599899       31.633434
 Pd       33.815616       38.418576       33.997735
 Pd       35.232744       37.599899       36.362037
 Pd       33.815616       38.418576       38.727330
 Pd       35.232744       37.599899       41.091636
 Pd       33.815616       38.418576       43.455937
 Pd       35.232744       37.599899       45.821231
 Pd       33.815616       38.418576       48.185533
 Pd       32.397496       40.874606       29.269128
 Pd       33.815616       40.055931       31.633434
 Pd       32.397496       40.874606       33.997735
 Pd       33.815616       40.055931       36.362037
 Pd       32.397496       40.874606       38.727330
 Pd       33.815616       40.055931       41.091636
 Pd       32.397496       40.874606       43.455937
 Pd       33.815616       40.055931       45.821231
 Pd       32.397496       40.874606       48.185533
 Pd       32.397496       42.510975       31.633434
 Pd       30.980365       43.329650       33.997735
 Pd       32.397496       42.510975       36.362037
 Pd       30.980365       43.329650       38.727330
 Pd       32.397496       42.510975       41.091636
 Pd       30.980365       43.329650       43.455937
 Pd       32.397496       42.510975       45.821231
 Pd       30.980365       44.967006       36.362037
 Pd       29.562245       45.784695       38.727330
 Pd       30.980365       44.967006       41.091636
 Pd       42.321365       28.597412       33.997735
 Pd       42.321365       28.597412       38.727330
 Pd       42.321365       28.597412       43.455937
 Pd       42.321365       30.233779       31.633434
 Pd       40.903245       31.052456       33.997735
 Pd       42.321365       30.233779       36.362037
 Pd       40.903245       31.052456       38.727330
 Pd       42.321365       30.233779       41.091636
 Pd       40.903245       31.052456       43.455937
 Pd       42.321365       30.233779       45.821231
 Pd       39.486116       33.508488       29.269128
 Pd       40.903245       32.689811       31.633434
 Pd       39.486116       33.508488       33.997735
 Pd       40.903245       32.689811       36.362037
 Pd       39.486116       33.508488       38.727330
 Pd       40.903245       32.689811       41.091636
 Pd       39.486116       33.508488       43.455937
 Pd       40.903245       32.689811       45.821231
 Pd       39.486116       33.508488       48.185533
 Pd       38.067996       35.963532       29.269128
 Pd       39.486116       35.144855       31.633434
 Pd       38.067996       35.963532       33.997735
 Pd       39.486116       35.144855       36.362037
 Pd       38.067996       35.963532       38.727330
 Pd       39.486116       35.144855       41.091636
 Pd       38.067996       35.963532       43.455937
 Pd       39.486116       35.144855       45.821231
 Pd       38.067996       35.963532       48.185533
 Pd       36.650864       38.418576       29.269128
 Pd       38.067996       37.599899       31.633434
 Pd       36.650864       38.418576       33.997735
 Pd       38.067996       37.599899       36.362037
 Pd       36.650864       38.418576       38.727330
 Pd       38.067996       37.599899       41.091636
 Pd       36.650864       38.418576       43.455937
 Pd       38.067996       37.599899       45.821231
 Pd       36.650864       38.418576       48.185533
 Pd       35.232744       40.874606       29.269128
 Pd       36.650864       40.055931       31.633434
 Pd       35.232744       40.874606       33.997735
 Pd       36.650864       40.055931       36.362037
 Pd       35.232744       40.874606       38.727330
 Pd       36.650864       40.055931       41.091636
 Pd       35.232744       40.874606       43.455937
 Pd       36.650864       40.055931       45.821231
 Pd       35.232744       40.874606       48.185533
 Pd       35.232744       42.510975       31.633434
 Pd       33.815616       43.329650       33.997735
 Pd       35.232744       42.510975       36.362037
 Pd       33.815616       43.329650       38.727330
 Pd       35.232744       42.510975       41.091636
 Pd       33.815616       43.329650       43.455937
 Pd       35.232744       42.510975       45.821231
 Pd       33.815616       44.967006       31.633434
 Pd       32.397496       45.784695       33.997735
 Pd       33.815616       44.967006       36.362037
 Pd       32.397496       45.784695       38.727330
 Pd       33.815616       44.967006       41.091636
 Pd       32.397496       45.784695       43.455937
 Pd       33.815616       44.967006       45.821231
 Pd       43.738497       31.052456       33.997735
 Pd       45.156617       30.233779       36.362037
 Pd       43.738497       31.052456       38.727330
 Pd       45.156617       30.233779       41.091636
 Pd       43.738497       31.052456       43.455937
 Pd       43.738497       32.689811       31.633434
 Pd       42.321365       33.508488       33.997735
 Pd       43.738497       32.689811       36.362037
 Pd       42.321365       33.508488       38.727330
 Pd       43.738497       32.689811       41.091636
 Pd       42.321365       33.508488       43.455937
 Pd       43.738497       32.689811       45.821231
 Pd       40.903245       35.963532       29.269128
 Pd       42.321365       35.144855       31.633434
 Pd       40.903245       35.963532       33.997735
 Pd       42.321365       35.144855       36.362037
 Pd       40.903245       35.963532       38.727330
 Pd       42.321365       35.144855       41.091636
 Pd       40.903245       35.963532       43.455937
 Pd       42.321365       35.144855       45.821231
 Pd       40.903245       35.963532       48.185533
 Pd       39.486116       38.418576       29.269128
 Pd       40.903245       37.599899       31.633434
 Pd       39.486116       38.418576       33.997735
 Pd       40.903245       37.599899       36.362037
 Pd       39.486116       38.418576       38.727330
 Pd       40.903245       37.599899       41.091636
 Pd       39.486116       38.418576       43.455937
 Pd       40.903245       37.599899       45.821231
 Pd       39.486116       38.418576       48.185533
 Pd       38.067996       40.874606       29.269128
 Pd       39.485129       40.055931       31.633434
 Pd       38.067996       40.874606       33.997735
 Pd       39.485129       40.055931       36.362037
 Pd       38.067996       40.874606       38.727330
 Pd       39.485129       40.055931       41.091636
 Pd       38.067996       40.874606       43.455937
 Pd       39.485129       40.055931       45.821231
 Pd       38.067996       40.874606       48.185533
 Pd       38.067996       42.510975       31.633434
 Pd       36.650864       43.329650       33.997735
 Pd       38.067996       42.510975       36.362037
 Pd       36.650864       43.329650       38.727330
 Pd       38.067996       42.510975       41.091636
 Pd       36.650864       43.329650       43.455937
 Pd       38.067996       42.510975       45.821231
 Pd       36.650864       44.967006       31.633434
 Pd       35.232744       45.784695       33.997735
 Pd       36.650864       44.967006       36.362037
 Pd       35.232744       45.784695       38.727330
 Pd       36.650864       44.967006       41.091636
 Pd       35.232744       45.784695       43.455937
 Pd       36.650864       44.967006       45.821231
 Pd       35.232744       47.422050       36.362037
 Pd       35.232744       47.422050       41.091636
 Pd       45.156617       33.508488       33.997735
 Pd       45.156617       33.508488       38.727330
 Pd       45.156617       33.508488       43.455937
 Pd       43.738497       35.963532       33.997735
 Pd       45.156617       35.144855       36.362037
 Pd       43.738497       35.963532       38.727330
 Pd       45.156617       35.144855       41.091636
 Pd       43.738497       35.963532       43.455937
 Pd       43.738497       37.599899       31.633434
 Pd       42.321365       38.418576       33.997735
 Pd       43.738497       37.599899       36.362037
 Pd       42.321365       38.418576       38.727330
 Pd       43.738497       37.599899       41.091636
 Pd       42.321365       38.418576       43.455937
 Pd       43.738497       37.599899       45.821231
 Pd       42.321365       40.055931       31.633434
 Pd       40.903245       40.874606       33.997735
 Pd       42.321365       40.055931       36.362037
 Pd       40.903245       40.874606       38.727330
 Pd       42.321365       40.055931       41.091636
 Pd       40.903245       40.874606       43.455937
 Pd       42.321365       40.055931       45.821231
 Pd       40.903245       42.510975       31.633434
 Pd       39.486116       43.329650       33.997735
 Pd       40.903245       42.510975       36.362037
 Pd       39.486116       43.329650       38.727330
 Pd       40.903245       42.510975       41.091636
 Pd       39.486116       43.329650       43.455937
 Pd       40.903245       42.510975       45.821231
 Pd       38.067996       45.784695       33.997735
 Pd       39.486116       44.967006       36.362037
 Pd       38.067996       45.784695       38.727330
 Pd       39.486116       44.967006       41.091636
 Pd       38.067996       45.784695       43.455937
 Pd       46.573745       35.963532       38.727330
 Pd       45.156617       38.418576       33.997735
 Pd       46.573745       37.599899       36.362037
 Pd       45.156617       38.418576       38.727330
 Pd       46.573745       37.599899       41.091636
 Pd       45.156617       38.418576       43.455937
 Pd       43.738497       40.874606       33.997735
 Pd       45.156617       40.055931       36.362037
 Pd       43.738497       40.874606       38.727330
 Pd       45.156617       40.055931       41.091636
 Pd       43.738497       40.874606       43.455937
 Pd       42.321365       43.329650       33.997735
 Pd       43.738497       42.510975       36.362037
 Pd       42.321365       43.329650       38.727330
 Pd       43.738497       42.510975       41.091636
 Pd       42.321365       43.329650       43.455937
 Pd       42.321365       44.967006       36.362037
 Pd       40.903245       45.784695       38.727330
 Pd       42.321365       44.967006       41.091636
