257
generated from rescale_cell.py
 Pd       30.277222       34.347193       40.225177
 Pd       34.433087       31.947870       35.595306
 Pd       33.048123       32.747965       37.910725
 Pd       34.433087       31.947870       40.225177
 Pd       33.048123       32.747965       42.539625
 Pd       34.433087       31.947870       44.855044
 Pd       33.048123       34.347193       35.595306
 Pd       31.662189       35.147289       37.910725
 Pd       33.048123       34.347193       40.225177
 Pd       31.662189       35.147289       42.539625
 Pd       33.048123       34.347193       44.855044
 Pd       31.662189       36.746517       35.595306
 Pd       30.277222       37.546612       37.910725
 Pd       31.662189       36.746517       40.225177
 Pd       30.277222       37.546612       42.539625
 Pd       31.662189       36.746517       44.855044
 Pd       30.277222       39.146805       35.595306
 Pd       30.277222       39.146805       40.225177
 Pd       30.277222       39.146805       44.855044
 Pd       37.203989       30.347677       37.910725
 Pd       38.589923       29.547580       40.225177
 Pd       37.203989       30.347677       42.539625
 Pd       37.203989       31.947870       35.595306
 Pd       35.819021       32.747965       37.910725
 Pd       37.203989       31.947870       40.225177
 Pd       35.819021       32.747965       42.539625
 Pd       37.203989       31.947870       44.855044
 Pd       34.433087       35.147289       33.280858
 Pd       35.819021       34.347193       35.595306
 Pd       34.433087       35.147289       37.910725
 Pd       35.819021       34.347193       40.225177
 Pd       34.433087       35.147289       42.539625
 Pd       35.819021       34.347193       44.855044
 Pd       34.433087       35.147289       47.169492
 Pd       33.048123       37.546612       33.280858
 Pd       34.433087       36.746517       35.595306
 Pd       33.048123       37.546612       37.910725
 Pd       34.433087       36.746517       40.225177
 Pd       33.048123       37.546612       42.539625
 Pd       34.433087       36.746517       44.855044
 Pd       33.048123       37.546612       47.169492
 Pd       33.048123       39.146805       35.595306
 Pd       31.662189       39.946899       37.910725
 Pd       33.048123       39.146805       40.225177
 Pd       31.662189       39.946899       42.539625
 Pd       33.048123       39.146805       44.855044
 Pd       31.662189       41.546129       35.595306
 Pd       30.277222       42.346223       37.910725
 Pd       31.662189       41.546129       40.225177
 Pd       30.277222       42.346223       42.539625
 Pd       31.662189       41.546129       44.855044
 Pd       30.277222       43.946416       40.225177
 Pd       39.974888       30.347677       37.910725
 Pd       39.974888       30.347677       42.539625
 Pd       38.589923       32.747965       33.280858
 Pd       39.974888       31.947870       35.595306
 Pd       38.589923       32.747965       37.910725
 Pd       39.974888       31.947870       40.225177
 Pd       38.589923       32.747965       42.539625
 Pd       39.974888       31.947870       44.855044
 Pd       38.589923       32.747965       47.169492
 Pd       37.203989       35.147289       33.280858
 Pd       38.589923       34.347193       35.595306
 Pd       37.203989       35.147289       37.910725
 Pd       38.589923       34.347193       40.225177
 Pd       37.203989       35.147289       42.539625
 Pd       38.589923       34.347193       44.855044
 Pd       37.203989       35.147289       47.169492
 Pd       37.203989       36.746517       30.966410
 Pd       35.819021       37.546612       33.280858
 Pd       37.203989       36.746517       35.595306
 Pd       35.819021       37.546612       37.910725
 Pd       37.203989       36.746517       40.225177
 Pd       35.819021       37.546612       42.539625
 Pd       37.203989       36.746517       44.855044
 Pd       35.819021       37.546612       47.169492
 Pd       37.203989       36.746517       49.483939
 Pd       35.819021       39.146805       30.966410
 Pd       34.433087       39.946899       33.280858
 Pd       35.819021       39.146805       35.595306
 Pd       34.433087       39.946899       37.910725
 Pd       35.819021       39.146805       40.225177
 Pd       34.433087       39.946899       42.539625
 Pd       35.819021       39.146805       44.855044
 Pd       34.433087       39.946899       47.169492
 Pd       35.819021       39.146805       49.483939
 Pd       33.048123       42.346223       33.280858
 Pd       34.433087       41.546129       35.595306
 Pd       33.048123       42.346223       37.910725
 Pd       34.433087       41.546129       40.225177
 Pd       33.048123       42.346223       42.539625
 Pd       34.433087       41.546129       44.855044
 Pd       33.048123       42.346223       47.169492
 Pd       33.048123       43.946416       35.595306
 Pd       31.662189       44.745547       37.910725
 Pd       33.048123       43.946416       40.225177
 Pd       31.662189       44.745547       42.539625
 Pd       33.048123       43.946416       44.855044
 Pd       42.745790       31.947870       35.595306
 Pd       41.360822       32.747965       37.910725
 Pd       42.745790       31.947870       40.225177
 Pd       41.360822       32.747965       42.539625
 Pd       42.745790       31.947870       44.855044
 Pd       39.974888       35.147289       33.280858
 Pd       41.360822       34.347193       35.595306
 Pd       39.974888       35.147289       37.910725
 Pd       41.360822       34.347193       40.225177
 Pd       39.974888       35.147289       42.539625
 Pd       41.360822       34.347193       44.855044
 Pd       39.974888       35.147289       47.169492
 Pd       39.974888       36.746517       30.966410
 Pd       38.589923       37.546612       33.280858
 Pd       39.974888       36.746517       35.595306
 Pd       38.589923       37.546612       37.910725
 Pd       39.974888       36.746517       40.225177
 Pd       38.589923       37.546612       42.539625
 Pd       39.974888       36.746517       44.855044
 Pd       38.589923       37.546612       47.169492
 Pd       39.974888       36.746517       49.483939
 Pd       38.588959       39.146805       30.966410
 Pd       37.203989       39.946899       33.280858
 Pd       38.588959       39.146805       35.595306
 Pd       37.203989       39.946899       37.910725
 Pd       38.588959       39.146805       40.225177
 Pd       37.203989       39.946899       42.539625
 Pd       38.588959       39.146805       44.855044
 Pd       37.203989       39.946899       47.169492
 Pd       38.588959       39.146805       49.483939
 Pd       37.203989       41.546129       30.966410
 Pd       35.819021       42.346223       33.280858
 Pd       37.203989       41.546129       35.595306
 Pd       35.819021       42.346223       37.910725
 Pd       37.203989       41.546129       40.225177
 Pd       35.819021       42.346223       42.539625
 Pd       37.203989       41.546129       44.855044
 Pd       35.819021       42.346223       47.169492
 Pd       37.203989       41.546129       49.483939
 Pd       35.819021       43.946416       35.595306
 Pd       34.433087       44.745547       37.910725
 Pd       35.819021       43.946416       40.225177
 Pd       34.433087       44.745547       42.539625
 Pd       35.819021       43.946416       44.855044
 Pd       34.433087       46.345739       35.595306
 Pd       34.433087       46.345739       40.225177
 Pd       34.433087       46.345739       44.855044
 Pd       44.131724       32.747965       37.910725
 Pd       44.131724       32.747965       42.539625
 Pd       42.745790       35.147289       33.280858
 Pd       44.131724       34.347193       35.595306
 Pd       42.745790       35.147289       37.910725
 Pd       44.131724       34.347193       40.225177
 Pd       42.745790       35.147289       42.539625
 Pd       44.131724       34.347193       44.855044
 Pd       42.745790       35.147289       47.169492
 Pd       41.360822       37.546612       33.280858
 Pd       42.745790       36.746517       35.595306
 Pd       41.360822       37.546612       37.910725
 Pd       42.745790       36.746517       40.225177
 Pd       41.360822       37.546612       42.539625
 Pd       42.745790       36.746517       44.855044
 Pd       41.360822       37.546612       47.169492
 Pd       41.360822       39.146805       30.966410
 Pd       39.974888       39.946899       33.280858
 Pd       41.360822       39.146805       35.595306
 Pd       39.974888       39.946899       37.910725
 Pd       41.360822       39.146805       40.225177
 Pd       39.974888       39.946899       42.539625
 Pd       41.360822       39.146805       44.855044
 Pd       39.974888       39.946899       47.169492
 Pd       41.360822       39.146805       49.483939
 Pd       39.974888       41.546129       30.966410
 Pd       38.589923       42.346223       33.280858
 Pd       39.974888       41.546129       35.595306
 Pd       38.589923       42.346223       37.910725
 Pd       39.974888       41.546129       40.225177
 Pd       38.589923       42.346223       42.539625
 Pd       39.974888       41.546129       44.855044
 Pd       38.589923       42.346223       47.169492
 Pd       39.974888       41.546129       49.483939
 Pd       37.203989       44.745547       33.280858
 Pd       38.589923       43.946416       35.595306
 Pd       37.203989       44.745547       37.910725
 Pd       38.589923       43.946416       40.225177
 Pd       37.203989       44.745547       42.539625
 Pd       38.589923       43.946416       44.855044
 Pd       37.203989       44.745547       47.169492
 Pd       37.203989       46.345739       35.595306
 Pd       35.819021       47.145835       37.910725
 Pd       37.203989       46.345739       40.225177
 Pd       35.819021       47.145835       42.539625
 Pd       37.203989       46.345739       44.855044
 Pd       45.516688       35.147289       37.910725
 Pd       46.902622       34.347193       40.225177
 Pd       45.516688       35.147289       42.539625
 Pd       44.131724       37.546612       33.280858
 Pd       45.516688       36.746517       35.595306
 Pd       44.131724       37.546612       37.910725
 Pd       45.516688       36.746517       40.225177
 Pd       44.131724       37.546612       42.539625
 Pd       45.516688       36.746517       44.855044
 Pd       44.131724       37.546612       47.169492
 Pd       42.745790       39.946899       33.280858
 Pd       44.131724       39.146805       35.595306
 Pd       42.745790       39.946899       37.910725
 Pd       44.131724       39.146805       40.225177
 Pd       42.745790       39.946899       42.539625
 Pd       44.131724       39.146805       44.855044
 Pd       42.745790       39.946899       47.169492
 Pd       41.360822       42.346223       33.280858
 Pd       42.745790       41.546129       35.595306
 Pd       41.360822       42.346223       37.910725
 Pd       42.745790       41.546129       40.225177
 Pd       41.360822       42.346223       42.539625
 Pd       42.745790       41.546129       44.855044
 Pd       41.360822       42.346223       47.169492
 Pd       39.974888       44.745547       33.280858
 Pd       41.360822       43.946416       35.595306
 Pd       39.974888       44.745547       37.910725
 Pd       41.360822       43.946416       40.225177
 Pd       39.974888       44.745547       42.539625
 Pd       41.360822       43.946416       44.855044
 Pd       39.974888       44.745547       47.169492
 Pd       39.974888       46.345739       35.595306
 Pd       38.589923       47.145835       37.910725
 Pd       39.974888       46.345739       40.225177
 Pd       38.589923       47.145835       42.539625
 Pd       39.974888       46.345739       44.855044
 Pd       38.589923       48.745064       40.225177
 Pd       46.902622       37.546612       37.910725
 Pd       46.902622       37.546612       42.539625
 Pd       46.901658       39.146805       35.595306
 Pd       45.516688       39.946899       37.910725
 Pd       46.901658       39.146805       40.225177
 Pd       45.516688       39.946899       42.539625
 Pd       46.901658       39.146805       44.855044
 Pd       44.131724       42.346223       33.280858
 Pd       45.516688       41.546129       35.595306
 Pd       44.131724       42.346223       37.910725
 Pd       45.516688       41.546129       40.225177
 Pd       44.131724       42.346223       42.539625
 Pd       45.516688       41.546129       44.855044
 Pd       44.131724       42.346223       47.169492
 Pd       44.131724       43.946416       35.595306
 Pd       42.745790       44.745547       37.910725
 Pd       44.131724       43.946416       40.225177
 Pd       42.745790       44.745547       42.539625
 Pd       44.131724       43.946416       44.855044
 Pd       42.745790       46.345739       35.595306
 Pd       41.360822       47.145835       37.910725
 Pd       42.745790       46.345739       40.225177
 Pd       41.360822       47.145835       42.539625
 Pd       42.745790       46.345739       44.855044
 Pd       46.902622       42.346223       37.910725
 Pd       46.902622       42.346223       42.539625
 Pd       45.516688       44.745547       37.910725
 Pd       46.902622       43.946416       40.225177
 Pd       45.516688       44.745547       42.539625
