135
generated from rescale_cell.py
 Pd       30.277222       29.547580       35.595306
 Pd       28.891288       30.347677       37.910725
 Pd       30.277222       29.547580       40.225177
 Pd       28.891288       31.947870       35.595306
 Pd       27.506322       32.747965       37.910725
 Pd       28.891288       31.947870       40.225177
 Pd       27.506322       34.347193       35.595306
 Pd       27.506322       34.347193       40.225177
 Pd       33.048123       27.948353       37.910725
 Pd       31.662189       30.347677       33.280858
 Pd       33.048123       29.547580       35.595306
 Pd       31.662189       30.347677       37.910725
 Pd       33.048123       29.547580       40.225177
 Pd       31.662189       30.347677       42.539625
 Pd       30.277222       32.747965       33.280858
 Pd       31.662189       31.947870       35.595306
 Pd       30.277222       32.747965       37.910725
 Pd       31.662189       31.947870       40.225177
 Pd       30.277222       32.747965       42.539625
 Pd       28.891288       35.147289       33.280858
 Pd       30.277222       34.347193       35.595306
 Pd       28.891288       35.147289       37.910725
 Pd       30.277222       34.347193       40.225177
 Pd       28.891288       35.147289       42.539625
 Pd       28.891288       36.746517       35.595306
 Pd       27.506322       37.546612       37.910725
 Pd       28.891288       36.746517       40.225177
 Pd       35.819021       27.948353       37.910725
 Pd       34.433087       30.347677       33.280858
 Pd       35.819021       29.547580       35.595306
 Pd       34.433087       30.347677       37.910725
 Pd       35.819021       29.547580       40.225177
 Pd       34.433087       30.347677       42.539625
 Pd       34.433087       31.947870       30.966410
 Pd       33.048123       32.747965       33.280858
 Pd       34.433087       31.947870       35.595306
 Pd       33.048123       32.747965       37.910725
 Pd       34.433087       31.947870       40.225177
 Pd       33.048123       32.747965       42.539625
 Pd       34.433087       31.947870       44.855044
 Pd       33.048123       34.347193       30.966410
 Pd       31.662189       35.147289       33.280858
 Pd       33.048123       34.347193       35.595306
 Pd       31.662189       35.147289       37.910725
 Pd       33.048123       34.347193       40.225177
 Pd       31.662189       35.147289       42.539625
 Pd       33.048123       34.347193       44.855044
 Pd       31.662189       36.746517       30.966410
 Pd       30.277222       37.546612       33.280858
 Pd       31.662189       36.746517       35.595306
 Pd       30.277222       37.546612       37.910725
 Pd       31.662189       36.746517       40.225177
 Pd       30.277222       37.546612       42.539625
 Pd       31.662189       36.746517       44.855044
 Pd       30.277222       39.146805       35.595306
 Pd       28.891288       39.946899       37.910725
 Pd       30.277222       39.146805       40.225177
 Pd       37.203989       30.347677       33.280858
 Pd       38.589923       29.547580       35.595306
 Pd       37.203989       30.347677       37.910725
 Pd       38.589923       29.547580       40.225177
 Pd       37.203989       30.347677       42.539625
 Pd       35.819021       32.747965       33.280858
 Pd       37.203989       31.947870       35.595306
 Pd       35.819021       32.747965       37.910725
 Pd       37.203989       31.947870       40.225177
 Pd       35.819021       32.747965       42.539625
 Pd       35.819021       34.347193       30.966410
 Pd       34.433087       35.147289       33.280858
 Pd       35.819021       34.347193       35.595306
 Pd       34.433087       35.147289       37.910725
 Pd       35.819021       34.347193       40.225177
 Pd       34.433087       35.147289       42.539625
 Pd       35.819021       34.347193       44.855044
 Pd       34.433087       36.746517       30.966410
 Pd       33.048123       37.546612       33.280858
 Pd       34.433087       36.746517       35.595306
 Pd       33.048123       37.546612       37.910725
 Pd       34.433087       36.746517       40.225177
 Pd       33.048123       37.546612       42.539625
 Pd       34.433087       36.746517       44.855044
 Pd       31.662189       39.946899       33.280858
 Pd       33.048123       39.146805       35.595306
 Pd       31.662189       39.946899       37.910725
 Pd       33.048123       39.146805       40.225177
 Pd       31.662189       39.946899       42.539625
 Pd       31.662189       41.546129       35.595306
 Pd       31.662189       41.546129       40.225177
 Pd       39.974888       30.347677       37.910725
 Pd       38.589923       32.747965       33.280858
 Pd       39.974888       31.947870       35.595306
 Pd       38.589923       32.747965       37.910725
 Pd       39.974888       31.947870       40.225177
 Pd       38.589923       32.747965       42.539625
 Pd       37.203989       35.147289       33.280858
 Pd       38.589923       34.347193       35.595306
 Pd       37.203989       35.147289       37.910725
 Pd       38.589923       34.347193       40.225177
 Pd       37.203989       35.147289       42.539625
 Pd       37.203989       36.746517       30.966410
 Pd       35.819021       37.546612       33.280858
 Pd       37.203989       36.746517       35.595306
 Pd       35.819021       37.546612       37.910725
 Pd       37.203989       36.746517       40.225177
 Pd       35.819021       37.546612       42.539625
 Pd       37.203989       36.746517       44.855044
 Pd       34.433087       39.946899       33.280858
 Pd       35.819021       39.146805       35.595306
 Pd       34.433087       39.946899       37.910725
 Pd       35.819021       39.146805       40.225177
 Pd       34.433087       39.946899       42.539625
 Pd       34.433087       41.546129       35.595306
 Pd       33.048123       42.346223       37.910725
 Pd       34.433087       41.546129       40.225177
 Pd       41.360822       32.747965       37.910725
 Pd       39.974888       35.147289       33.280858
 Pd       41.360822       34.347193       35.595306
 Pd       39.974888       35.147289       37.910725
 Pd       41.360822       34.347193       40.225177
 Pd       39.974888       35.147289       42.539625
 Pd       38.589923       37.546612       33.280858
 Pd       39.974888       36.746517       35.595306
 Pd       38.589923       37.546612       37.910725
 Pd       39.974888       36.746517       40.225177
 Pd       38.589923       37.546612       42.539625
 Pd       37.203989       39.946899       33.280858
 Pd       38.588959       39.146805       35.595306
 Pd       37.203989       39.946899       37.910725
 Pd       38.588959       39.146805       40.225177
 Pd       37.203989       39.946899       42.539625
 Pd       37.203989       41.546129       35.595306
 Pd       35.819021       42.346223       37.910725
 Pd       37.203989       41.546129       40.225177
 Pd       41.360822       37.546612       37.910725
 Pd       39.974888       39.946899       37.910725
