7
grp 3 atoms
 Pd    33.998000    30.974200    11.019600            3
 Pd    34.541700    27.884600    12.590400            3
 Pd    33.674200    32.284000     9.342000            3
 Pd    31.125200    30.447900    10.678200            3
 Pd    32.522600    33.154600    10.840400            3
 Pd    32.279100    28.215300    11.275100            3
 Pd    32.460100    29.911600     8.799500            3
